137

Mg 22.954 19.177 28.24 
C 22.878 18.94  24.78 
C 26.017 20.496 28.21 
H 27.011 20.998 28.203
C 22.896 19.471 31.65 
H 22.895 19.508 32.719
C 19.719 17.765 28.315
H 18.775 17.228 28.303
N 24.275 19.562 26.676
C 24.06  19.504 25.311
C 25.34 20.   24.51
H 25.838 19.196 24.   
C 26.183 20.597 25.686
H 26.258 21.751 25.626
C 25.492 20.114 26.943
C 27.664 20.086 25.633
H 27.719 18.944 25.786
H 28.062 20.41  24.687
H 28.241 20.595 26.448
C 24.882 21.043 23.47 
H 24.085 21.708 23.829
H 24.493 20.392 22.695
C 26.061 21.892 22.843
H 27.02  21.551 22.998
H 25.999 21.772 21.749
C 26.01  23.358 23.262
O 26.858 23.882 23.908
O 24.848 23.982 22.862
N 24.313 19.789 29.701
C 25.475 20.392 29.47 
C 26.058 20.843 30.669
C 25.163 20.525 31.722
C 24.045 19.876 31.022
C 27.351 21.458 30.709
H 28.193 20.852 30.376
H 27.307 22.311 30.002
H 27.674 21.61  31.756
C 25.153 20.725 33.208
H 24.428 20.163 33.755
C 25.884 21.658 33.859
H 26.568 22.282 33.263
H 25.788 21.912 34.963
N 21.542 18.733 29.717
C 21.749 18.924 31.096
C 20.584 18.283 31.808
C 19.631 17.923 30.845
C 20.285 18.059 29.581
C 20.386 18.31  33.283
H 21.267 17.889 33.798
H 20.192 19.303 33.649
H 19.615 17.674 33.563
C 18.277 17.287 31.151
H 18.049 16.585 30.4  
H 18.34  16.762 32.098
C 17.102 18.222 31.07 
H 17.279 19.067 31.677
H 16.898 18.524 30.009
H 16.234 17.697 31.333
N 21.506 18.468 26.844
C 20.243 18.064 26.997
C 19.644 17.825 25.726
C 20.705 18.118 24.849
C 21.745 18.639 25.521
C 18.133 17.428 25.436
H 17.525 18.301 25.637
H 18.005 17.211 24.409
H 17.874 16.622 26.024
C 21.02  18.14  23.401
O 20.314 17.811 22.464
C 22.493 18.789 23.289
H 22.426 19.699 22.701
C 23.319 17.777 22.505
O 23.499 16.65  22.906
O 23.769 18.164 21.243
C 24.536 17.168 20.477
H 25.337 16.754 21.116
H 23.948 16.401 20.029
H 25.054 17.716 19.684
C 24.879 25.417 23.122
H 25.656 25.784 22.472
H 25.098 25.682 24.172
C 23.512 25.956 22.935
H 22.795 25.634 23.761
C 23.118 26.916 22.06 
C 23.971 27.638 21.021
H 23.725 27.301 20.034
H 23.839 28.702 21.103
H 25.02  27.505 21.207
C 21.698 27.467 22.149
H 21.158 26.704 22.607
H 21.275 27.687 21.133
C 21.466 28.717 22.929
H 20.868 29.419 22.254
H 22.447 29.187 23.112
C 20.698 28.584 24.262
H 20.612 27.584 24.627
H 19.746 29.086 24.244
C 21.553 29.157 25.433
H 21.933 30.166 25.185
C 22.641 28.23  25.799
H 23.295 28.66  26.523
H 22.374 27.258 26.068
H 23.276 28.286 24.953
C 20.674 29.519 26.754
H 21.301 29.743 27.699
H 20.079 28.697 27.052
C 19.662 30.783 26.525
H 18.654 30.369 26.334
H 19.932 31.336 25.659
C 19.686 31.836 27.731
H 19.775 32.817 27.316
H 20.6   31.769 28.282
C 18.561 31.573 28.705
H 17.66  31.867 28.213
C 18.725 32.571 29.893
H 19.523 32.15  30.491
H 18.814 33.53  29.376
H 17.824 32.483 30.495
C 18.463 30.134 29.299
H 19.441 29.943 29.763
H 18.369 29.322 28.557
C 17.286 29.921 30.291
H 16.547 30.682 30.212
H 17.642 29.881 31.326
C 16.44  28.6   29.978
H 16.954 28.061 29.136
H 15.526 28.827 29.566
C 16.301 27.672 31.244
H 17.352 27.409 31.6  
C 15.58  26.378 30.951
H 16.068 25.824 30.148
H 15.596 25.742 31.838
H 14.487 26.541 30.666
C 15.622 28.328 32.444
H 15.913 29.335 32.726
H 14.564 28.315 32.283
H 15.751 27.704 33.342
