137

Mg 36.904 33.511 34.306
C 33.375 33.153 34.59 
C 36.896 30.227 32.928
H 36.915 29.234 32.408
C 40.091 33.816 33.76 
H 41.149 34.024 33.641
C 36.686 36.446 35.992
H 36.602 37.392 36.557
N 35.331 31.991 33.753
C 33.955 32.101 33.896
C 33.224 30.96  33.224
H 32.496 30.471 33.819
C 34.419 29.92  33.141
H 34.305 29.312 32.159
C 35.634 30.764 33.209
C 34.327 28.856 34.209
H 33.334 28.373 34.21 
H 35.13  28.078 33.953
H 34.452 29.407 35.155
C 32.56  31.421 31.934
H 33.341 31.567 31.25 
H 32.133 32.419 32.061
C 31.485 30.427 31.417
H 31.971 30.027 30.51 
H 31.234 29.732 32.218
C 30.2   31.062 30.782
O 30.038 31.143 29.594
O 29.275 31.311 31.724
N 38.207 32.356 33.393
C 38.032 31.024 32.923
C 39.31  30.631 32.332
C 40.267 31.629 32.584
C 39.551 32.654 33.259
C 39.546 29.239 31.748
H 40.493 28.997 31.463
H 38.987 28.354 32.194
H 38.95  29.352 30.855
C 41.681 31.699 32.177
H 42.288 32.516 32.628
C 42.115 31.087 31.047
H 41.513 30.489 30.426
H 43.151 31.214 30.685
N 38.091 34.99  34.664
C 39.429 34.944 34.36 
C 40.025 36.185 34.943
C 39.011 36.844 35.685
C 37.865 36.093 35.435
C 41.456 36.508 34.715
H 41.743 36.528 33.69 
H 41.689 37.421 35.217
H 42.186 35.778 35.075
C 39.155 38.05  36.542
H 38.672 37.881 37.548
H 40.225 38.21  36.718
C 38.669 39.369 35.941
H 37.819 39.175 35.303
H 38.41  39.996 36.84 
H 39.443 39.917 35.414
N 35.439 34.603 35.054
C 35.475 35.722 35.866
C 34.205 36.067 36.514
C 33.358 35.078 36.025
C 34.147 34.201 35.138
C 33.913 37.157 37.528
H 33.99  38.163 37.077
H 32.945 37.047 37.907
H 34.52  37.104 38.406
C 31.937 34.604 35.888
O 30.9   35.155 36.241
C 31.929 33.392 34.972
H 31.32  33.587 34.088
C 31.349 32.253 35.647
O 31.876 31.555 36.517
O 30.033 32.106 35.179
C 29.452 30.805 35.565
H 29.166 30.817 36.625
H 28.481 30.56  35.082
H 30.039 29.943 35.364
C 28.007 31.836 31.283
H 27.311 31.159 30.813
H 28.203 32.686 30.615
C 27.337 32.506 32.469
H 27.992 33.167 33.068
C 26.167 32.199 32.974
C 25.254 31.221 32.362
H 24.911 30.539 33.143
H 24.375 31.712 32.017
H 25.522 30.606 31.508
C 25.604 32.795 34.242
H 26.332 33.355 34.815
H 25.31  31.922 34.988
C 24.352 33.742 34.072
H 24.565 34.251 33.105
H 24.32  34.567 34.851
C 22.936 33.095 34.164
H 22.501 33.394 35.13 
H 23.026 32.005 34.17 
C 22.042 33.576 33.007
H 22.621 33.448 32.102
C 21.68  35.059 33.07 
H 20.88  35.362 32.331
H 21.431 35.344 34.056
H 22.571 35.607 32.725
C 20.827 32.554 32.911
H 21.317 31.569 32.871
H 20.299 32.682 31.948
C 19.718 32.568 33.96 
H 18.857 32.859 33.413
H 19.96  33.401 34.72 
C 19.494 31.201 34.549
H 20.452 30.762 34.824
H 19.074 30.493 33.837
C 18.617 31.145 35.789
H 17.682 31.625 35.482
C 19.372 31.848 36.99 
H 19.644 32.851 36.706
H 18.581 32.067 37.726
H 20.211 31.32  37.495
C 18.339 29.621 36.103
H 18.105 29.492 37.122
H 19.094 28.887 35.843
C 17.079 29.139 35.279
H 16.507 30.059 35.042
H 16.468 28.676 36.058
C 17.34  28.132 34.14 
H 18.371 27.786 33.949
H 17.065 28.694 33.247
C 16.546 26.861 34.256
H 15.509 27.258 34.493
C 17.049 25.81  35.315
H 16.206 25.097 35.467
H 17.911 25.163 34.928
H 17.217 26.387 36.232
C 16.46  26.033 32.891
H 15.643 25.293 32.98 
H 16.329 26.785 32.093
H 17.397 25.59  32.72 
