137

Mg 19.697 26.16  32.293
C 20.941 23.26  33.697
C 16.836 25.796 34.141
H 15.875 25.649 34.613
C 18.696 29.066 31.045
H 18.325 30.03  30.666
C 22.238 25.943 29.917
H 23.064 25.842 29.171
N 19.102 24.851 33.873
C 19.727 23.662 34.278
C 18.983 22.982 35.527
H 18.933 21.885 35.432
C 17.517 23.627 35.366
H 17.07  23.989 36.306
C 17.816 24.886 34.444
C 16.493 22.646 34.681
H 17.043 22.231 33.763
H 16.133 21.93  35.425
H 15.727 23.302 34.336
C 19.728 23.356 36.821
H 19.921 24.458 36.837
H 20.753 22.869 36.837
C 19.203 22.896 38.217
H 18.3   22.298 38.1  
H 20.065 22.393 38.676
C 18.912 23.999 39.228
O 19.656 24.197 40.188
O 17.874 24.834 38.857
N 18.059 27.299 32.516
C 17.001 26.94  33.295
C 16.04  28.079 33.235
C 16.585 29.086 32.41 
C 17.882 28.502 31.926
C 14.756 28.155 34.   
H 14.975 27.748 34.942
H 14.456 29.229 34.036
H 13.912 27.656 33.498
C 16.067 30.402 31.979
H 16.813 31.146 31.714
C 14.777 30.661 31.79 
H 14.008 29.88  31.917
H 14.358 31.606 31.381
N 20.363 27.388 30.721
C 19.842 28.487 30.395
C 20.567 29.057 29.26 
C 21.556 28.114 28.907
C 21.368 27.108 29.873
C 20.162 30.417 28.645
H 20.842 30.757 27.879
H 19.259 30.24  28.118
H 19.862 31.178 29.379
C 22.615 28.315 27.819
H 22.624 27.48  27.02 
H 22.488 29.221 27.315
C 23.983 28.265 28.481
H 23.938 28.848 29.401
H 24.371 27.261 28.564
H 24.634 28.757 27.82 
N 21.233 24.905 31.847
C 22.224 24.957 30.895
C 23.213 23.862 31.044
C 22.688 23.118 32.089
C 21.528 23.834 32.507
C 24.405 23.62  30.13 
H 25.02  22.821 30.561
H 24.142 23.185 29.182
H 25.071 24.443 29.961
C 22.89  21.96  32.976
O 23.743 21.117 33.04 
C 21.707 22.038 34.033
H 22.382 22.05  34.899
C 20.955 20.766 34.052
O 19.871 20.518 33.487
O 21.629 19.848 34.889
C 20.78  18.609 34.962
H 21.456 17.899 35.34 
H 20.001 18.807 35.691
H 20.392 18.255 33.979
C 17.678 26.005 39.718
H 18.452 26.758 39.606
H 17.675 25.594 40.709
C 16.373 26.697 39.36 
H 15.504 26.021 39.59 
C 16.213 27.784 38.534
C 17.242 28.674 38.074
H 18.26  28.2   38.149
H 17.179 29.049 37.049
H 17.258 29.563 38.657
C 14.784 28.21  38.108
H 14.016 27.437 38.232
H 14.929 28.265 37.04 
C 14.227 29.504 38.822
H 15.008 29.979 39.358
H 13.512 29.232 39.595
C 13.641 30.541 37.827
H 12.722 30.982 38.254
H 13.455 30.117 36.844
C 14.664 31.644 37.49 
H 15.686 31.307 37.351
C 14.828 32.595 38.683
H 15.593 33.342 38.348
H 13.856 33.16  38.813
H 15.156 32.133 39.601
C 14.277 32.463 36.204
H 13.408 33.009 36.525
H 14.017 31.786 35.42 
C 15.115 33.582 35.568
H 15.714 33.237 34.736
H 15.802 34.043 36.296
C 14.318 34.583 34.771
H 13.356 34.875 35.277
H 14.089 34.218 33.734
C 14.927 35.985 34.679
H 15.945 35.862 34.299
C 15.088 36.752 36.032
H 15.187 37.84  35.966
H 14.125 36.573 36.549
H 15.918 36.331 36.459
C 14.26  36.916 33.623
H 14.683 37.95  33.683
H 13.238 37.075 33.966
C 14.245 36.388 32.157
H 13.238 36.109 31.92 
H 14.707 35.492 31.933
C 14.891 37.321 31.184
H 15.972 37.122 31.076
H 14.803 38.302 31.592
C 14.13  37.282 29.811
H 14.001 36.266 29.449
C 14.969 37.964 28.702
H 14.628 37.776 27.64 
H 15.017 39.019 29.036
H 16.029 37.569 28.711
C 12.709 37.892 29.9  
H 12.213 37.839 28.941
H 12.156 37.399 30.65 
H 12.716 38.969 30.167
