137

Mg 35.758 30.386 34.904
C 32.608 29.006 34.772
C 36.495 29.124 31.837
H 36.909 28.638 30.943
C 38.341 32.309 34.807
H 39.262 32.871 34.694
C 35.29  30.98  38.335
H 35.114 31.221 39.422
N 34.614 29.305 33.442
C 33.347 28.958 33.539
C 32.901 28.071 32.321
H 32.529 27.031 32.58 
C 34.33  27.889 31.571
H 34.142 28.239 30.591
C 35.198 28.822 32.306
C 34.92  26.445 31.523
H 35.943 26.499 31.064
H 35.145 26.285 32.535
H 34.3   25.679 31.177
C 31.727 28.637 31.414
H 32.089 29.625 31.073
H 30.839 28.818 32.104
C 31.195 27.923 30.197
H 31.235 28.562 29.316
H 31.904 27.127 29.979
C 29.758 27.345 30.248
O 29.486 26.171 30.402
O 28.85  28.378 30.087
N 37.046 30.827 33.436
C 37.308 30.155 32.307
C 38.382 30.793 31.614
C 38.865 31.744 32.414
C 38.069 31.66  33.653
C 38.927 30.299 30.259
H 39.969 30.611 30.076
H 38.755 29.166 29.968
H 38.426 30.944 29.522
C 40.063 32.64  32.152
H 40.021 33.104 31.234
C 41.167 32.944 32.97 
H 41.292 32.421 33.957
H 41.94  33.547 32.567
N 36.658 31.5   36.363
C 37.723 32.259 36.101
C 38.284 32.81  37.334
C 37.462 32.336 38.358
C 36.39  31.577 37.691
C 39.568 33.713 37.355
H 40.378 33.083 37.661
H 39.901 34.07  36.327
H 39.458 34.58  38.004
C 37.545 32.648 39.833
H 37.506 31.729 40.425
H 38.477 33.192 39.965
C 36.445 33.623 40.239
H 36.455 33.801 41.332
H 36.707 34.479 39.723
H 35.466 33.295 39.969
N 34.368 30.074 36.289
C 34.27  30.312 37.615
C 32.897 30.001 38.089
C 32.203 29.503 37.044
C 33.147 29.548 35.974
C 32.329 30.276 39.467
H 32.526 29.439 40.105
H 32.84  31.183 39.894
H 31.248 30.486 39.357
C 30.992 29.021 36.53 
O 29.87  28.819 36.986
C 31.231 28.645 35.11 
H 30.526 29.187 34.591
C 31.032 27.194 34.973
O 31.887 26.399 35.198
O 29.83  26.816 34.48 
C 29.728 25.431 34.178
H 29.153 25.395 33.249
H 30.715 24.985 33.943
H 29.226 24.88  35.007
C 27.513 27.876 29.903
H 27.18  27.645 30.903
H 27.421 26.98  29.184
C 26.687 29.001 29.333
H 27.175 29.375 28.405
C 25.552 29.599 29.733
C 24.64  29.112 30.886
H 24.31  29.949 31.535
H 23.643 28.735 30.6  
H 25.217 28.424 31.543
C 25.161 30.889 29.008
H 25.965 31.453 28.501
H 24.967 31.591 29.78 
C 23.99  30.76  28.044
H 23.547 29.863 28.267
H 24.398 30.979 27.049
C 22.833 31.699 28.46 
H 22.723 31.907 29.497
H 21.972 31.013 28.471
C 22.491 33.07  27.717
H 21.885 32.692 26.884
C 23.704 33.784 27.128
H 24.393 34.038 27.902
H 24.122 33.122 26.366
H 23.325 34.604 26.507
C 21.559 34.117 28.443
H 21.287 34.846 27.667
H 22.096 34.609 29.229
C 20.247 33.6   29.134
H 20.229 32.53  29.217
H 19.398 33.859 28.551
C 19.915 34.247 30.496
H 18.93  34.69  30.295
H 20.641 35.019 30.608
C 20.102 33.408 31.823
H 21.072 32.842 31.861
C 18.94  32.344 31.836
H 18.868 31.875 30.915
H 19.335 31.648 32.6  
H 18.014 32.724 32.201
C 20.141 34.321 33.109
H 19.854 33.804 34.036
H 19.366 35.141 33.046
C 21.586 34.973 33.345
H 21.507 36.023 33.612
H 22.175 34.895 32.474
C 22.414 34.195 34.428
H 21.86  33.364 34.886
H 22.548 35.006 35.157
C 23.814 33.625 34.102
H 24.419 34.356 33.642
C 23.739 32.442 33.118
H 24.713 32.102 32.874
H 23.149 31.63  33.473
H 23.344 32.706 32.154
C 24.503 33.148 35.438
H 24.091 32.203 35.767
H 25.59  32.957 35.439
H 24.384 33.953 36.178
