137

Mg 33.557 32.561 35.597
C 30.53  31.765 34.09 
C 35.015 30.317 33.626
H 35.532 29.565 33.036
C 36.444 33.243 37.145
H 37.376 33.254 37.729
C 31.918 34.915 37.532
H 31.384 35.566 38.254
N 32.88  31.266 34.041
C 31.643 31.157 33.497
C 31.518 30.012 32.471
H 30.895 29.168 32.897
C 32.973 29.445 32.444
H 33.494 29.677 31.482
C 33.662 30.381 33.401
C 33.088 27.92  32.646
H 34.109 27.613 32.431
H 32.901 27.631 33.723
H 32.475 27.378 31.929
C 30.944 30.514 31.056
H 31.619 31.245 30.667
H 29.992 30.97  31.213
C 30.871 29.402 29.979
H 31.374 29.647 29.06 
H 31.342 28.498 30.317
C 29.418 29.166 29.569
O 28.987 28.022 29.524
O 28.788 30.336 29.144
N 35.468 31.842 35.403
C 35.9   30.963 34.508
C 37.375 30.808 34.541
C 37.77  31.685 35.639
C 36.536 32.346 36.067
C 38.143 29.8   33.691
H 38.046 29.984 32.629
H 39.163 29.731 34.036
H 37.701 28.878 33.938
C 39.093 31.893 36.278
H 39.143 31.941 37.395
C 40.278 31.946 35.596
H 40.333 31.97  34.53 
H 41.272 31.962 36.172
N 34.168 33.921 37.033
C 35.368 34.004 37.591
C 35.327 34.965 38.639
C 34.043 35.574 38.678
C 33.31  34.757 37.722
C 36.538 35.426 39.422
H 37.461 35.184 38.958
H 36.559 36.466 39.626
H 36.551 34.729 40.255
C 33.509 36.579 39.695
H 32.523 36.13  40.046
H 34.206 36.833 40.557
C 32.995 37.886 39.145
H 33.728 38.262 38.514
H 32.112 37.641 38.56 
H 32.672 38.575 39.875
N 31.656 33.234 35.818
C 31.103 34.226 36.593
C 29.638 34.173 36.448
C 29.385 33.256 35.441
C 30.646 32.659 35.168
C 28.681 34.999 37.262
H 28.    35.587 36.594
H 28.209 34.32  37.983
H 29.107 35.595 37.992
C 28.358 32.696 34.663
O 27.207 33.018 34.472
C 29.054 31.656 33.747
H 28.96  31.71  32.678
C 28.519 30.313 34.232
O 28.432 29.894 35.36 
O 28.102 29.612 33.117
C 27.433 28.279 33.428
H 27.785 27.856 34.364
H 26.453 28.52  33.477
H 27.496 27.631 32.573
C 27.386 30.152 28.791
H 26.845 29.6   29.566
H 27.352 29.73  27.779
C 26.956 31.563 28.68 
H 27.539 32.141 27.964
C 25.903 32.231 29.138
C 24.972 31.676 30.267
H 25.492 30.825 30.687
H 24.997 32.41  31.088
H 24.073 31.363 29.822
C 25.637 33.594 28.82 
H 26.355 33.918 28.041
H 25.759 34.08  29.803
C 24.238 33.798 28.137
H 23.79  32.917 27.739
H 24.482 34.4   27.284
C 23.221 34.474 29.042
H 23.257 35.528 28.872
H 23.458 34.18  30.066
C 21.701 34.099 28.754
H 21.672 33.017 28.669
C 21.209 34.564 27.28 
H 21.41  35.626 27.268
H 21.749 34.124 26.48 
H 20.174 34.259 27.286
C 20.684 34.6   29.828
H 19.656 34.774 29.372
H 21.097 35.572 30.041
C 20.597 33.875 31.165
H 19.551 34.114 31.521
H 21.466 34.044 31.787
C 20.711 32.365 31.03 
H 21.707 31.917 31.176
H 20.361 32.05  30.079
C 19.824 31.603 32.081
H 18.864 31.886 31.847
C 20.129 32.129 33.543
H 21.162 31.917 33.859
H 20.065 33.249 33.714
H 19.396 31.621 34.147
C 19.95  30.027 32.155
H 20.902 29.768 32.588
H 20.176 29.665 31.105
C 18.82  29.199 32.717
H 18.857 28.331 32.097
H 17.876 29.717 32.499
C 18.93  28.789 34.216
H 19.675 29.454 34.643
H 19.299 27.813 34.201
C 17.581 28.709 35.014
H 16.878 28.128 34.438
C 17.087 30.148 35.161
H 16.157 30.14  35.791
H 17.807 30.675 35.729
H 16.928 30.645 34.175
C 17.639 27.958 36.387
H 16.654 27.698 36.68 
H 18.273 27.003 36.275
H 18.057 28.674 37.134
