137

Mg 19.776 25.018 28.334
C 23.178 24.606 28.393
C 20.047 27.56  30.642
H 20.042 28.238 31.459
C 16.517 25.517 28.028
H 15.45  25.589 28.053
C 19.571 22.419 26.208
H 19.528 21.682 25.443
N 21.393 25.981 29.356
C 22.724 25.737 29.173
C 23.615 26.588 30.066
H 24.37  25.924 30.595
C 22.607 27.27  30.971
H 22.704 28.398 31.045
C 21.263 26.97  30.293
C 22.56  26.711 32.444
H 23.532 26.703 32.916
H 21.841 27.431 32.892
H 22.104 25.698 32.402
C 24.34  27.668 29.122
H 23.582 28.158 28.526
H 25.018 27.179 28.448
C 25.188 28.774 29.833
H 25.082 28.753 30.913
H 26.213 28.665 29.525
C 25.12  30.206 29.264
O 25.163 30.519 28.057
O 25.176 31.109 30.27 
N 18.46  26.389 29.2  
C 18.766 27.341 30.085
C 17.603 28.096 30.413
C 16.568 27.608 29.58 
C 17.133 26.481 28.888
C 17.521 29.271 31.357
H 18.263 30.029 31.105
H 16.503 29.666 31.425
H 17.739 28.912 32.36 
C 15.144 28.071 29.586
H 14.767 28.499 30.51 
C 14.25  28.205 28.543
H 14.443 27.947 27.479
H 13.196 28.595 28.817
N 18.268 24.12  27.278
C 16.962 24.418 27.334
C 16.163 23.513 26.516
C 17.107 22.72  25.847
C 18.4   23.049 26.453
C 14.676 23.654 26.39 
H 14.531 22.878 25.617
H 14.067 23.311 27.263
H 14.43  24.661 25.898
C 16.899 21.593 24.86 
H 17.545 20.788 24.961
H 15.882 21.223 24.949
C 16.894 22.069 23.339
H 15.978 22.665 23.078
H 17.732 22.624 23.   
H 16.959 21.135 22.764
N 21.091 23.801 27.422
C 20.869 22.71  26.611
C 22.111 21.993 26.348
C 23.064 22.68  27.107
C 22.386 23.8   27.632
C 22.183 20.871 25.417
H 23.09  20.413 25.519
H 21.455 20.165 25.75 
H 21.981 21.276 24.43 
C 24.401 22.774 27.489
O 25.437 22.09  27.211
C 24.615 24.006 28.344
H 25.453 24.687 28.067
C 24.986 23.473 29.705
O 24.209 22.825 30.424
O 26.329 23.73  30.062
C 26.771 22.885 31.218
H 26.172 23.136 32.076
H 26.594 21.79  31.086
H 27.815 22.952 31.355
C 25.475 32.462 29.825
H 26.316 32.411 29.124
H 25.83  32.899 30.724
C 24.336 33.198 29.209
H 23.838 32.623 28.517
C 23.987 34.459 29.383
C 24.75  35.399 30.213
H 24.43  36.414 29.985
H 24.502 35.27  31.261
H 25.841 35.294 30.135
C 23.016 35.133 28.465
H 22.735 34.321 27.835
H 23.535 35.792 27.754
C 21.796 35.607 29.186
H 21.662 35.255 30.191
H 21.033 35.199 28.608
C 21.805 37.226 29.173
H 21.007 37.718 28.548
H 22.733 37.634 28.842
C 21.628 37.811 30.597
H 22.361 37.286 31.245
C 20.278 37.64  31.229
H 19.618 38.477 31.021
H 19.686 36.8   30.78 
H 20.407 37.456 32.277
C 21.968 39.347 30.587
H 21.638 39.827 31.484
H 21.462 39.848 29.75 
C 23.435 39.737 30.538
H 23.958 39.272 29.657
H 23.897 39.465 31.525
C 23.471 41.261 30.504
H 23.922 41.689 31.444
H 22.459 41.583 30.302
C 24.411 41.785 29.416
H 25.38  41.245 29.473
C 24.706 43.264 29.647
H 25.339 43.51  30.484
H 25.227 43.611 28.746
H 23.76  43.859 29.652
C 23.964 41.483 27.992
H 23.16  42.162 27.759
H 23.587 40.446 27.952
C 25.007 41.537 26.826
H 25.026 40.641 26.285
H 25.939 41.676 27.304
C 24.653 42.479 25.735
H 24.474 43.415 26.281
H 23.595 42.271 25.373
C 25.775 42.552 24.669
H 26.184 41.542 24.519
C 27.008 43.283 25.261
H 27.353 42.901 26.186
H 27.754 43.089 24.421
H 26.891 44.319 25.35 
C 25.206 43.19  23.459
H 24.892 44.231 23.505
H 25.883 43.021 22.545
H 24.266 42.656 23.202
