137

Mg 20.763 25.371 28.047
C 24.299 25.262 28.335
C 20.798 27.73  30.607
H 20.913 28.546 31.379
C 17.51  25.559 27.615
H 16.447 25.581 27.547
C 21.034 22.951 25.604
H 21.06  22.167 24.848
N 22.382 26.494 29.242
C 23.72  26.209 29.175
C 24.507 26.869 30.257
H 24.846 26.069 30.88 
C 23.407 27.619 31.061
H 23.495 28.727 31.122
C 22.115 27.313 30.269
C 23.233 27.09  32.567
H 22.922 26.079 32.643
H 24.073 27.183 33.29 
H 22.451 27.693 33.022
C 25.588 27.837 30.006
H 25.235 28.7   29.411
H 26.242 27.196 29.368
C 26.624 28.261 31.025
H 26.339 28.013 32.053
H 27.588 27.778 30.739
C 26.862 29.754 31.114
O 27.734 30.392 30.458
O 26.215 30.365 32.137
N 19.364 26.492 28.909
C 19.588 27.388 29.957
C 18.363 28.143 30.198
C 17.38  27.547 29.43 
C 18.04  26.473 28.6  
C 18.23  29.262 31.256
H 17.507 30.077 31.037
H 18.152 28.82  32.313
H 19.079 29.868 31.143
C 15.993 27.961 29.278
H 15.366 28.211 30.177
C 15.332 28.155 28.132
H 15.888 28.024 27.183
H 14.189 28.368 28.092
N 19.484 24.543 26.78 
C 18.156 24.65  26.752
C 17.505 23.723 25.853
C 18.539 22.962 25.313
C 19.754 23.5   25.873
C 16.023 23.596 25.749
H 15.793 23.02  24.853
H 15.703 23.141 26.622
H 15.514 24.538 25.689
C 18.473 21.796 24.35 
H 19.055 20.986 24.756
H 17.386 21.512 24.258
C 18.905 22.265 22.97 
H 19.885 22.698 22.893
H 18.917 21.355 22.285
H 18.193 23.034 22.548
N 22.279 24.372 27.132
C 22.241 23.337 26.156
C 23.571 22.806 25.894
C 24.403 23.544 26.735
C 23.591 24.457 27.425
C 23.698 21.699 24.895
H 23.546 21.899 23.83 
H 24.605 21.081 24.914
H 22.934 20.962 25.275
C 25.79  23.699 27.125
O 26.799 23.13  26.784
C 25.695 24.781 28.192
H 26.34  25.57  27.778
C 26.379 24.141 29.344
O 25.864 23.363 30.088
O 27.673 24.568 29.456
C 28.567 23.736 30.318
H 28.43  24.065 31.374
H 28.256 22.671 30.259
H 29.582 23.809 29.96 
C 26.375 31.812 32.269
H 27.296 32.266 32.047
H 26.12  32.04  33.339
C 25.183 32.537 31.501
H 24.256 32.178 31.838
C 25.253 33.385 30.509
C 26.605 33.829 29.972
H 27.145 34.533 30.649
H 27.299 33.009 29.871
H 26.487 34.285 28.95 
C 24.077 34.095 29.933
H 23.246 33.68  30.532
H 24.012 33.763 28.922
C 24.093 35.592 30.294
H 25.051 35.789 30.808
H 23.387 35.798 31.045
C 23.886 36.492 29.102
H 23.629 35.926 28.22 
H 24.824 37.055 28.95 
C 22.73  37.514 29.375
H 22.856 37.934 30.416
C 21.337 36.812 29.278
H 21.198 36.162 28.397
H 21.169 36.139 30.131
H 20.583 37.612 29.19 
C 22.832 38.651 28.301
H 21.941 39.036 27.814
H 23.286 38.138 27.477
C 23.868 39.725 28.429
H 24.528 39.755 27.532
H 24.452 39.513 29.235
C 23.158 41.078 28.551
H 23.711 41.485 29.352
H 22.082 40.888 28.72 
C 23.17  42.118 27.423
H 24.217 42.248 27.002
C 22.858 43.536 27.927
H 23.641 43.91  28.578
H 22.793 44.128 27.059
H 21.858 43.629 28.405
C 22.22  41.693 26.253
H 21.211 41.56  26.549
H 22.565 40.692 26.062
C 22.322 42.552 24.941
H 22.247 42.031 23.998
H 23.335 43.054 24.943
C 21.348 43.683 24.942
H 21.9   44.615 25.102
H 20.653 43.558 25.727
C 20.5   43.934 23.586
H 19.985 42.963 23.384
C 21.347 44.318 22.357
H 20.632 44.41  21.478
H 22.02  45.235 22.577
H 21.973 43.531 22.045
C 19.382 44.939 23.824
H 19.873 45.93  24.005
H 18.717 45.064 22.981
H 18.783 44.774 24.728
