137

Mg 24.964 30.679 34.236
C 23.951 31.392 37.437
C 21.734 31.484 33.172
H 20.728 31.752 32.785
C 25.929 29.925 31.184
H 26.301 29.735 30.203
C 28.063 29.787 35.405
H 29.068 29.695 35.892
N 23.145 31.511 35.174
C 22.945 31.658 36.504
C 21.548 32.216 36.846
H 21.048 31.563 37.59 
C 20.758 32.12  35.482
H 20.286 33.031 35.156
C 21.917 31.643 34.536
C 19.575 31.147 35.568
H 19.931 30.104 35.592
H 18.893 31.537 36.37 
H 19.077 31.174 34.589
C 21.524 33.612 37.584
H 21.452 34.453 36.855
H 22.469 33.896 38.082
C 20.354 33.939 38.467
H 19.795 33.029 38.607
H 20.871 34.226 39.426
C 19.389 35.009 38.048
O 19.669 36.239 38.051
O 18.108 34.501 37.809
N 24.017 30.772 32.466
C 22.7   31.089 32.2  
C 22.447 30.95  30.743
C 23.642 30.595 30.218
C 24.579 30.356 31.329
C 21.141 31.287 30.065
H 21.166 32.382 29.657
H 21.186 30.649 29.208
H 20.283 31.172 30.672
C 23.962 30.473 28.816
H 24.654 29.754 28.49 
C 23.567 31.358 27.837
H 22.73  32.115 28.001
H 23.806 31.172 26.765
N 26.722 29.96  33.454
C 26.945 29.775 32.127
C 28.309 29.275 31.936
C 28.874 29.246 33.182
C 27.881 29.686 34.083
C 28.852 28.947 30.609
H 28.28  29.414 29.747
H 29.911 29.153 30.495
H 28.799 27.885 30.554
C 30.351 28.935 33.544
H 30.318 28.186 34.315
H 30.845 28.481 32.684
C 31.238 30.161 33.923
H 30.801 30.716 34.785
H 32.259 29.878 34.295
H 31.21  30.786 33.027
N 25.835 30.572 36.01 
C 27.076 30.156 36.389
C 27.262 30.204 37.81 
C 26.064 30.652 38.305
C 25.228 30.941 37.133
C 28.526 29.814 38.502
H 29.236 30.563 38.674
H 28.3   29.183 39.404
H 29.01  29.132 37.853
C 25.269 30.983 39.468
O 25.524 30.982 40.652
C 23.865 31.47  38.914
H 23.637 32.463 39.288
C 22.929 30.552 39.569
O 22.94  29.358 39.429
O 21.875 31.211 40.206
C 20.818 30.353 40.742
H 20.031 30.906 41.251
H 20.413 29.633 40.035
H 21.221 29.819 41.567
C 17.191 35.544 37.357
H 17.438 35.853 36.34 
H 17.231 36.467 37.913
C 15.801 34.971 37.279
H 15.086 35.272 38.085
C 15.342 34.196 36.245
C 16.23  33.774 35.087
H 15.979 32.758 35.036
H 15.886 34.28  34.162
H 17.255 33.971 35.249
C 13.955 33.632 36.197
H 13.237 34.263 36.788
H 13.956 32.703 36.588
C 13.183 33.423 34.847
H 12.238 32.897 35.1  
H 13.725 32.788 34.19 
C 12.906 34.826 34.237
H 13.376 35.678 34.703
H 11.788 34.968 34.278
C 13.294 34.946 32.766
H 14.34  34.737 32.468
C 13.236 36.433 32.33 
H 13.523 36.632 31.302
H 12.273 36.904 32.496
H 13.953 36.972 32.993
C 12.496 34.021 31.775
H 12.746 32.978 32.099
H 12.88  34.156 30.779
C 10.939 34.245 31.734
H 10.689 34.435 30.681
H 10.67  35.069 32.364
C 10.11  32.939 32.202
H  9.169 33.244 32.658
H 10.65  32.428 33.045
C  9.703 31.92  31.08 
H  9.185 32.423 30.334
C  8.751 30.913 31.738
H  8.684 30.219 30.95 
H  9.117 30.461 32.656
H  7.843 31.532 31.898
C 10.971 31.257 30.469
H 11.477 30.757 31.265
H 11.622 31.995 30.119
C 10.796 30.27  29.271
H  9.721 30.023 29.196
H 11.356 29.381 29.501
C 11.373 30.739 27.91 
H 11.784 29.774 27.492
H 12.121 31.509 28.135
C 10.45  31.132 26.753
H  9.673 30.306 26.734
C 11.143 31.399 25.468
H 10.397 31.645 24.648
H 11.809 32.19  25.676
H 11.653 30.426 25.234
C  9.523 32.412 27.026
H  9.02  32.877 26.118
H  8.823 32.154 27.794
H 10.192 33.156 27.368
