137

Mg 33.114 31.63  35.502
C 31.459 29.872 33.074
C 35.7   32.099 33.286
H 36.509 32.247 32.671
C 34.534 33.642 37.81 
H 34.99  34.237 38.595
C 30.258 31.182 37.574
H 29.434 30.933 38.231
N 33.455 31.206 33.374
C 32.643 30.392 32.616
C 33.203 30.076 31.237
H 33.333 28.971 31.089
C 34.621 30.73  31.368
H 34.843 31.473 30.547
C 34.553 31.478 32.74 
C 35.759 29.727 31.333
H 35.553 28.865 31.912
H 35.816 29.434 30.342
H 36.71  30.253 31.49 
C 32.359 30.703 30.058
H 32.12  31.735 30.304
H 31.369 30.284 29.98 
C 33.07  30.729 28.676
H 33.358 31.778 28.641
H 33.986 30.149 28.698
C 32.374 30.239 27.465
O 32.471 30.835 26.381
O 31.669 29.065 27.626
N 34.873 32.647 35.596
C 35.836 32.719 34.55 
C 36.842 33.648 35.001
C 36.598 33.994 36.351
C 35.331 33.451 36.613
C 37.935 34.238 34.018
H 38.722 33.544 33.955
H 37.49  34.447 32.973
H 38.38  35.085 34.432
C 37.329 34.836 37.323
H 36.741 35.451 37.952
C 38.719 34.954 37.291
H 39.315 34.288 36.568
H 39.299 35.612 38.01 
N 32.495 32.315 37.383
C 33.303 33.055 38.167
C 32.708 33.102 39.513
C 31.447 32.407 39.432
C 31.359 31.904 38.075
C 33.234 33.81  40.689
H 32.982 33.195 41.588
H 34.328 34.015 40.647
H 32.711 34.725 40.68 
C 30.452 32.14  40.534
H 30.253 31.101 40.624
H 30.992 32.502 41.426
C 29.118 32.874 40.377
H 28.593 32.553 41.264
H 29.239 34.009 40.331
H 28.671 32.488 39.459
N 31.266 30.797 35.367
C 30.162 30.731 36.234
C 29.061 29.904 35.763
C 29.543 29.524 34.501
C 30.852 30.105 34.326
C 27.828 29.558 36.438
H 27.27  30.47  36.668
H 27.315 29.038 35.699
H 27.97  28.915 37.349
C 29.333 28.802 33.29 
O 28.356 28.161 32.991
C 30.498 28.953 32.348
H 30.207 29.391 31.374
C 31.072 27.587 32.072
O 31.686 26.944 32.877
O 30.788 27.156 30.815
C 31.343 25.9   30.299
H 32.429 25.916 30.416
H 31.003 24.994 30.857
H 31.133 25.807 29.237
C 30.854 28.678 26.47 
H 31.247 28.465 25.449
H 30.135 29.495 26.349
C 29.983 27.576 27.065
H 29.491 27.738 28.011
C 29.705 26.329 26.608
C 30.283 25.867 25.257
H 31.185 26.495 25.17 
H 30.684 24.814 25.27 
H 29.669 25.961 24.342
C 28.878 25.34  27.432
H 28.739 25.662 28.469
H 29.522 24.423 27.463
C 27.536 25.12  26.763
H 27.482 24.254 26.081
H 27.299 25.916 26.073
C 26.312 25.019 27.768
H 25.607 25.799 27.601
H 26.754 25.167 28.764
C 25.414 23.697 27.747
H 26.153 22.89  27.667
C 24.422 23.616 26.56 
H 25.038 23.563 25.671
H 23.718 22.788 26.587
H 23.868 24.551 26.449
C 24.882 23.481 29.188
H 25.78  23.435 29.768
H 24.447 22.461 29.163
C 24.02  24.553 29.895
H 23.14  24.755 29.309
H 24.611 25.493 30.041
C 23.492 24.009 31.265
H 23.481 24.809 32.014
H 24.146 23.23  31.561
C 22.095 23.273 31.187
H 22.168 22.444 30.488
C 20.899 24.176 30.64 
H 21.064 24.508 29.562
H 19.958 23.662 30.781
H 20.685 25.022 31.276
C 21.858 22.837 32.649
H 21.714 23.739 33.313
H 22.732 22.192 33.005
C 20.612 21.907 32.986
H 21.097 21.002 33.335
H 20.035 21.667 32.108
C 19.612 22.457 33.976
H 18.676 22.79  33.539
H 20.006 23.409 34.293
C 19.295 21.513 35.228
H 20.267 21.239 35.62 
C 18.548 20.229 34.708
H 18.347 19.639 35.571
H 17.684 20.562 34.223
H 19.157 19.658 34.014
C 18.504 22.208 36.33 
H 18.128 21.393 36.999
H 18.977 22.93  36.956
H 17.592 22.621 35.986
