137

Mg 21.384 32.22  31.244
C 21.165 29.078 32.483
C 18.038 32.592 31.94 
H 17.068 32.834 32.188
C 21.668 35.296 30.155
H 21.893 36.344 30.033
C 24.698 31.533 30.336
H 25.744 31.293 30.103
N 19.751 30.905 31.968
C 19.918 29.724 32.616
C 18.663 29.083 33.165
H 18.436 28.269 32.515
C 17.619 30.258 32.81 
H 17.24  30.707 33.766
C 18.512 31.341 32.189
C 16.534 29.85  31.814
H 16.954 29.439 30.94 
H 15.973 29.107 32.32 
H 15.885 30.694 31.596
C 18.651 28.667 34.708
H 18.76  29.557 35.29 
H 19.524 28.06  34.996
C 17.293 28.036 35.07 
H 16.719 27.497 34.336
H 17.544 27.27  35.743
C 16.312 28.928 35.803
O 16.416 29.196 37.006
O 15.335 29.449 34.962
N 20.02  33.707 31.011
C 18.718 33.667 31.344
C 18.093 34.979 30.904
C 19.144 35.72  30.32 
C 20.336 34.91  30.497
C 16.623 35.406 31.204
H 16.358 36.133 30.408
H 16.041 34.498 31.167
H 16.454 35.813 32.166
C 19.226 37.104 29.893
H 20.099 37.449 29.332
C 18.334 38.029 30.257
H 17.465 37.842 30.876
H 18.676 39.071 30.111
N 22.888 33.253 30.319
C 22.796 34.575 30.087
C 24.066 35.06  29.561
C 24.931 33.934 29.531
C 24.172 32.83  30.094
C 24.167 36.523 29.167
H 23.392 36.562 28.342
H 23.936 37.1   30.086
H 25.185 36.772 28.825
C 26.365 33.969 28.978
H 26.524 33.105 28.399
H 26.53  34.771 28.243
C 27.43  34.007 30.05 
H 27.475 33.117 30.739
H 28.413 34.044 29.612
H 27.347 34.904 30.71 
N 22.652 30.689 31.405
C 23.99  30.558 30.984
C 24.469 29.275 31.261
C 23.429 28.614 31.888
C 22.324 29.509 31.902
C 25.872 28.698 30.939
H 26.001 28.872 29.908
H 26.703 29.215 31.492
H 25.846 27.573 31.212
C 22.948 27.422 32.417
O 23.505 26.293 32.548
C 21.514 27.73  32.984
H 21.441 27.591 34.05 
C 20.672 26.681 32.364
O 20.494 26.679 31.162
O 20.132 25.807 33.287
C 19.194 24.826 32.745
H 18.57  25.191 31.919
H 19.736 24.008 32.301
H 18.581 24.429 33.572
C 14.326 30.205 35.702
H 14.836 31.038 36.084
H 13.879 29.727 36.604
C 13.281 30.365 34.574
H 12.601 29.519 34.653
C 12.926 31.438 33.845
C 13.805 32.707 33.654
H 14.776 32.645 34.169
H 13.977 32.987 32.615
H 13.355 33.563 34.128
C 11.722 31.388 32.948
H 11.639 30.428 32.412
H 11.837 32.122 32.152
C 10.392 31.801 33.575
H 10.546 32.288 34.568
H  9.926 30.818 33.708
C  9.552 32.708 32.758
H  8.517 32.274 32.829
H  9.873 32.774 31.675
C  9.383 34.197 33.317
H  9.317 34.213 34.417
C  8.124 34.802 32.561
H  7.943 35.765 33.028
H  8.14  34.855 31.49 
H  7.216 34.179 32.717
C 10.627 35.022 32.814
H 10.704 35.022 31.713
H 11.429 34.388 33.209
C 10.802 36.469 33.238
H 10.081 36.561 34.041
H 10.519 37.176 32.455
C 12.277 36.889 33.501
H 12.851 36.035 33.833
H 12.084 37.656 34.292
C 13.075 37.626 32.375
H 12.564 38.568 32.267
C 13.168 36.989 31.004
H 13.767 36.134 30.988
H 12.221 36.589 30.598
H 13.635 37.677 30.277
C 14.522 38.076 32.755
H 15.013 38.42  31.837
H 15.153 37.239 33.067
C 14.629 39.357 33.704
H 13.649 39.516 34.174
H 14.917 40.235 33.112
C 15.616 39.207 34.882
H 16.345 38.379 34.6  
H 14.983 38.863 35.668
C 16.379 40.544 35.237
H 15.658 41.315 35.009
C 17.441 40.771 34.145
H 16.799 41.086 33.298
H 18.073 41.636 34.343
H 18.183 39.922 33.845
C 17.145 40.61  36.604
H 17.674 41.534 36.694
H 16.39  40.499 37.399
H 17.958 39.865 36.48 
