137

Mg 23.46  27.044 39.938
C 20.417 25.431 40.199
C 24.112 25.16  37.083
H 24.276 24.601 36.201
C 26.21  28.963 39.345
H 26.962 29.59  39.123
C 22.616 29.122 42.619
H 22.484 29.63  43.607
N 22.459 25.507 38.803
C 21.179 24.942 39.112
C 20.821 23.752 38.104
H 20.722 22.86  38.764
C 22.074 23.723 37.209
H 21.777 24.041 36.16 
C 22.953 24.863 37.739
C 22.774 22.3   37.168
H 23.021 22.264 38.206
H 22.001 21.572 36.936
H 23.805 22.237 36.647
C 19.499 24.018 37.253
H 19.511 25.029 36.768
H 18.707 23.897 37.949
C 19.24  23.109 36.009
H 19.856 22.202 35.909
H 18.125 22.868 36.032
C 19.162 23.727 34.618
O 18.653 24.855 34.367
O 19.368 22.84  33.55 
N 24.912 27.039 38.459
C 25.009 26.16  37.387
C 26.17  26.493 36.572
C 26.675 27.672 37.229
C 25.936 27.901 38.404
C 26.588 25.809 35.287
H 25.897 25.044 35.024
H 26.708 26.532 34.475
H 27.629 25.355 35.362
C 27.779 28.51  36.737
H 28.412 28.876 37.529
C 28.051 28.864 35.469
H 27.374 28.504 34.665
H 28.913 29.542 35.135
N 24.241 28.747 40.755
C 25.43  29.322 40.463
C 25.749 30.412 41.374
C 24.69  30.503 42.259
C 23.745 29.446 41.937
C 26.926 31.209 41.395
H 27.753 30.668 41.965
H 27.309 31.433 40.41 
H 26.89  32.186 41.901
C 24.504 31.537 43.422
H 24.591 31.044 44.408
H 25.279 32.22  43.499
C 23.16  32.313 43.365
H 22.994 32.746 44.306
H 23.177 33.097 42.546
H 22.196 31.74  43.114
N 21.87  27.28  41.127
C 21.675 28.126 42.205
C 20.41  27.754 42.924
C 19.901 26.727 42.149
C 20.738 26.475 41.083
C 19.771 28.388 44.115
H 18.923 27.709 44.298
H 20.351 28.481 45.025
H 19.401 29.332 43.863
C 18.816 25.725 42.077
O 17.935 25.463 42.839
C 19.091 24.973 40.811
H 18.205 25.077 40.162
C 19.071 23.519 41.17 
O 19.96  22.98  41.847
O 18.056 22.716 40.664
C 18.276 21.264 40.802
H 17.928 20.856 41.785
H 17.741 20.712 40.075
H 19.331 21.013 40.635
C 18.946 23.408 32.246
H 19.568 24.31  32.107
H 17.879 23.693 32.357
C 19.169 22.331 31.134
H 19.979 21.673 31.362
C 18.489 22.081 30.047
C 17.268 22.881 29.643
H 17.35  23.284 28.614
H 16.389 22.191 29.733
H 17.026 23.702 30.37 
C 18.847 20.814 29.236
H 19.855 20.545 29.459
H 18.817 21.072 28.146
C 17.995 19.542 29.634
H 17.397 19.864 30.493
H 18.608 18.733 29.975
C 17.081 19.074 28.483
H 16.8   19.937 27.913
H 16.195 18.672 28.978
C 17.689 18.139 27.403
H 18.712 18.499 27.218
C 16.971 18.235 26.011
H 15.874 18.195 26.179
H 17.143 19.188 25.554
H 17.31  17.321 25.416
C 17.955 16.681 27.879
H 18.507 16.727 28.797
H 18.455 16.138 27.126
C 16.713 15.862 28.231
H 15.89  16.571 28.404
H 16.845 15.325 29.199
C 16.389 14.733 27.236
H 16.407 13.81  27.813
H 17.227 14.685 26.504
C 15.16  14.706 26.269
H 15.035 15.594 25.737
C 13.937 14.519 27.158
H 13.041 14.705 26.621
H 13.98  13.519 27.639
H 14.186 15.218 27.951
C 15.214 13.444 25.281
H 14.206 13.237 24.904
H 15.6   12.628 25.88 
C 16.075 13.628 24.02 
H 16.841 12.814 23.929
H 16.616 14.602 24.194
C 15.337 13.792 22.745
H 15.75  14.749 22.365
H 14.314 13.932 22.849
C 15.685 12.78  21.589
H 16.762 12.777 21.688
C 15.147 13.213 20.185
H 14.031 13.047 20.053
H 15.309 14.213 19.797
H 15.698 12.565 19.478
C 15.276 11.309 21.925
H 15.269 11.288 23.007
H 14.238 11.13  21.58 
H 15.967 10.621 21.441
