137

Mg 29.732 32.844 33.963
C 28.001 33.364 36.828
C 26.797 32.878 32.255
H 25.835 32.943 31.768
C 31.523 32.368 31.11 
H 32.065 32.147 30.173
C 32.661 32.802 35.83 
H 33.534 32.935 36.49 
N 27.685 33.331 34.465
C 27.202 33.441 35.699
C 25.648 33.624 35.645
H 25.156 32.898 36.346
C 25.268 33.145 34.227
H 24.613 33.876 33.806
C 26.637 33.13  33.639
C 24.51  31.769 34.191
H 24.845 31.189 33.368
H 24.689 31.222 35.087
H 23.412 31.898 34.146
C 25.198 35.015 36.129
H 25.706 35.774 35.607
H 25.456 35.224 37.18 
C 23.694 35.416 35.955
H 23.016 34.588 35.828
H 23.294 35.739 36.916
C 23.414 36.62  34.998
O 23.849 37.74  35.156
O 22.646 36.256 33.959
N 29.26  32.71  31.922
C 27.995 32.72  31.43 
C 28.098 32.574 29.948
C 29.463 32.569 29.616
C 30.144 32.563 30.916
C 26.876 32.621 29.002
H 26.541 33.638 28.826
H 27.068 32.155 28.091
H 26.071 32.113 29.423
C 30.123 32.494 28.279
H 31.095 31.999 28.119
C 29.592 32.948 27.132
H 28.624 33.419 27.059
H 30.136 32.769 26.157
N 31.719 32.411 33.52 
C 32.265 32.281 32.259
C 33.729 32.068 32.352
C 34.053 32.311 33.702
C 32.782 32.552 34.404
C 34.705 31.654 31.243
H 35.374 30.851 31.557
H 34.121 31.404 30.316
H 35.434 32.48  30.935
C 35.473 32.135 34.321
H 35.413 31.429 35.097
H 36.257 31.897 33.585
C 35.991 33.429 35.099
H 35.36 33.46 35.98
H 37.007 33.238 35.427
H 35.961 34.263 34.407
N 30.291 32.907 35.931
C 31.437 33.055 36.549
C 31.225 33.337 37.95 
C 29.879 33.433 38.091
C 29.348 33.192 36.864
C 32.25  33.554 38.996
H 32.435 34.616 39.088
H 31.866 33.197 39.952
H 33.183 33.047 38.874
C 28.819 33.645 39.087
O 28.864 33.779 40.265
C 27.504 33.478 38.247
H 26.78  34.288 38.446
C 26.855 32.167 38.726
O 26.713 31.08  38.109
O 26.388 32.292 39.99 
C 25.736 31.075 40.526
H 24.837 30.87  39.966
H 26.39  30.187 40.434
H 25.42  31.085 41.558
C 22.216 37.353 33.095
H 23.04  37.77  32.564
H 21.598 38.06  33.742
C 21.367 36.636 31.967
H 21.876 35.783 31.625
C 20.162 36.883 31.445
C 19.39  38.15  31.646
H 19.44  38.807 30.812
H 18.34  37.917 31.882
H 19.73  38.645 32.489
C 19.737 36.131 30.177
H 20.48  35.317 29.934
H 19.759 36.808 29.34 
C 18.489 35.273 30.162
H 18.138 34.979 31.09 
H 18.628 34.325 29.662
C 17.303 35.951 29.389
H 17.651 36.772 28.74 
H 16.572 36.335 30.036
C 16.608 34.963 28.481
H 17.332 34.645 27.758
C 15.534 35.695 27.592
H 16.2   36.181 26.933
H 14.969 34.926 27.149
H 14.91  36.375 28.196
C 15.912 33.757 29.269
H 16.725 33.223 29.844
H 15.716 33.1   28.441
C 14.622 34.02  30.115
H 14.277 35.083 30.258
H 14.832 33.731 31.139
C 13.338 33.287 29.616
H 13.59  32.888 28.623
H 12.55  34.017 29.54 
C 12.783 32.163 30.526
H 12.594 32.435 31.577
C 13.882 30.941 30.635
H 13.968 30.603 29.646
H 14.871 31.113 31.014
H 13.407 30.173 31.211
C 11.528 31.6   29.868
H 11.778 31.294 28.831
H 10.823 32.436 29.762
C 10.658 30.588 30.665
H  9.605 30.843 30.895
H 11.134 30.318 31.628
C 10.576 29.217 29.89 
H 10.897 28.413 30.531
H 11.136 29.165 28.924
C  9.164 28.735 29.549
H  8.457 28.895 30.384
C  9.164 27.249 29.077
H  8.186 26.873 28.999
H  9.784 27.097 28.176
H  9.528 26.757 30.003
C  8.545 29.622 28.52 
H  7.506 29.318 28.394
H  8.537 30.658 28.887
H  9.068 29.428 27.58 
