137

Mg 22.404 17.335 30.48 
C 24.892 15.981 28.379
C 23.397 20.431 29.454
H 23.666 21.456 29.187
C 19.905 18.527 32.428
H 19.025 18.89  32.917
C 21.815 14.098 31.578
H 21.487 13.088 31.737
N 23.971 18.087 29.152
C 24.854 17.376 28.392
C 25.737 18.3   27.49 
H 26.836 18.126 27.65 
C 25.452 19.73  28.077
H 25.172 20.402 27.215
C 24.149 19.378 28.994
C 26.598 20.291 28.849
H 27.397 20.355 28.08 
H 26.329 21.252 29.25 
H 26.91  19.653 29.66 
C 25.402 18.249 25.96 
H 24.361 18.399 25.779
H 25.566 17.265 25.498
C 26.142 19.237 25.017
H 26.984 19.741 25.487
H 26.478 18.543 24.221
C 25.343 20.285 24.193
O 25.007 20.146 23.043
O 24.867 21.293 24.958
N 21.703 19.263 30.807
C 22.298 20.401 30.341
C 21.483 21.514 30.889
C 20.428 20.94  31.696
C 20.636 19.544 31.672
C 21.789 22.923 30.614
H 21.236 23.29  29.745
H 21.618 23.592 31.455
H 22.856 23.035 30.291
C 19.335 21.596 32.366
H 18.875 21.034 33.226
C 18.799 22.779 32.095
H 19.156 23.474 31.307
H 17.969 23.036 32.745
N 21.099 16.54  31.889
C 20.131 17.15  32.588
C 19.327 16.162 33.348
C 19.927 14.955 33.064
C 21.004 15.154 32.161
C 18.28  16.515 34.32 
H 18.248 17.607 34.512
H 17.317 16.237 33.794
H 18.313 15.888 35.232
C 19.614 13.625 33.721
H 20.184 12.794 33.333
H 19.961 13.674 34.738
C 18.157 13.191 33.575
H 17.833 13.092 32.525
H 17.885 12.287 34.158
H 17.579 13.98  34.054
N 23.183 15.442 30.14 
C 22.811 14.218 30.631
C 23.605 13.114 30.124
C 24.42  13.784 29.196
C 24.139 15.17  29.261
C 23.602 11.682 30.57 
H 22.694 11.138 30.375
H 24.363 11.171 29.97 
H 23.935 11.549 31.616
C 25.485 13.627 28.296
O 26.182 12.654 28.125
C 25.919 15.04  27.766
H 25.877 15.006 26.691
C 27.338 15.342 28.136
O 27.733 15.672 29.24 
O 28.231 15.181 27.019
C 29.63  15.499 27.28 
H 30.261 15.546 26.318
H 29.511 16.566 27.503
H 30.033 14.797 28.023
C 23.993 22.186 24.226
H 23.038 21.714 24.096
H 24.372 22.493 23.221
C 23.837 23.479 25.007
H 24.457 24.307 24.781
C 23.024 23.765 26.046
C 22.034 22.808 26.717
H 21.877 21.915 26.157
H 22.345 22.471 27.654
H 21.137 23.35  26.73 
C 22.943 25.098 26.723
H 23.942 25.449 26.607
H 22.72  24.98  27.791
C 21.98  26.169 26.163
H 21.476 25.815 25.248
H 22.608 26.93  25.795
C 21.057 26.799 27.211
H 21.109 26.312 28.237
H 20.008 26.675 26.813
C 21.412 28.284 27.487
H 21.368 28.888 26.554
C 22.857 28.444 28.089
H 22.828 28.084 29.133
H 23.598 27.847 27.533
H 23.127 29.441 28.08 
C 20.301 28.904 28.349
H 20.584 29.984 28.41 
H 20.395 28.557 29.343
C 18.831 28.741 27.942
H 18.428 27.88  28.422
H 18.798 28.441 26.926
C 18.02  30.093 28.227
H 18.696 30.857 28.539
H 17.119 29.858 28.832
C 17.37  30.635 26.884
H 16.9   29.784 26.3  
C 18.454 31.207 25.937
H 19.165 31.816 26.573
H 18.997 30.286 25.6  
H 17.971 31.661 25.062
C 16.301 31.696 27.374
H 16.8   32.542 27.794
H 15.711 31.364 28.261
C 15.26  32.207 26.382
H 15.78  32.667 25.522
H 14.677 32.988 26.856
C 14.352 31.068 25.916
H 14.494 30.145 26.51 
H 14.489 30.827 24.848
C 12.833 31.258 26.125
H 12.659 31.358 27.176
C 11.988 29.996 25.806
H 10.899 30.142 25.809
H 12.265 29.75  24.794
H 12.34  29.155 26.415
C 12.361 32.556 25.421
H 12.812 32.646 24.496
H 11.249 32.709 25.45 
H 12.744 33.338 26.101
