137

Mg 23.07  18.2   27.762
C 22.559 18.646 24.42 
C 26.055 19.899 27.559
H 26.99  20.469 27.602
C 23.796 17.364 30.939
H 24.08  17.128 31.963
C 20.299 16.293 27.86 
H 19.363 15.732 27.926
N 24.124 19.085 26.199
C 23.709 19.229 24.96 
C 24.671 20.099 24.039
H 25.047 19.524 23.155
C 25.929 20.305 25.028
H 26.197 21.341 25.232
C 25.319 19.761 26.371
C 27.152 19.609 24.451
H 26.903 18.631 24.312
H 27.412 20.116 23.527
H 28.103 19.72  24.989
C 24.165 21.514 23.613
H 23.986 22.109 24.526
H 23.104 21.331 23.201
C 24.813 22.334 22.562
H 25.664 21.655 22.426
H 24.256 22.396 21.658
C 25.237 23.717 22.854
O 26.376 24.139 22.999
O 24.14 24.46 23.12
N 24.685 18.473 29.027
C 25.851 19.183 28.768
C 26.757 19.142 29.865
C 26.049 18.548 30.942
C 24.778 18.083 30.271
C 28.153 19.671 29.808
H 28.625 19.45  30.78 
H 28.624 19.337 28.942
H 28.079 20.767 29.861
C 26.426 18.346 32.322
H 26.203 17.376 32.712
C 27.256 19.111 33.078
H 27.647 20.139 32.849
H 27.422 18.832 34.105
N 22.098 17.112 29.241
C 22.599 16.787 30.472
C 21.752 15.837 31.192
C 20.699 15.545 30.238
C 20.997 16.351 29.098
C 21.825 15.389 32.641
H 21.583 14.361 32.821
H 22.733 15.61  33.259
H 20.949 15.877 33.154
C 19.477 14.669 30.419
H 19.472 13.9   29.719
H 19.652 14.119 31.341
C 18.12  15.42  30.445
H 17.889 15.862 29.531
H 17.286 14.842 30.954
H 18.339 16.216 31.123
N 21.568 17.683 26.455
C 20.493 16.904 26.623
C 19.692 16.89  25.441
C 20.464 17.554 24.546
C 21.623 17.984 25.189
C 18.474 16.115 25.15 
H 17.536 16.691 25.371
H 18.447 15.779 24.104
H 18.326 15.162 25.652
C 20.608 18.064 23.16 
O 19.787 17.998 22.267
C 22.02  18.657 22.979
H 22.04  19.612 22.493
C 22.722 17.637 22.106
O 22.371 16.507 21.898
O 23.873 18.188 21.618
C 24.632 17.299 20.784
H 25.627 17.693 20.454
H 24.991 16.42  21.276
H 24.023 17.164 19.866
C 24.375 25.788 23.737
H 25.091 26.35  23.15 
H 24.679 25.792 24.76 
C 23.07  26.527 23.645
H 22.237 26.215 24.251
C 22.631 27.547 22.814
C 23.455 28.114 21.594
H 23.859 29.061 22.036
H 24.282 27.506 21.424
H 22.904 28.177 20.678
C 21.183 28.143 22.794
H 20.578 27.643 23.578
H 20.607 27.942 21.889
C 21.202 29.724 23.014
H 21.335 30.315 22.128
H 22.016 29.868 23.715
C 19.841 30.055 23.649
H 19.265 29.132 23.867
H 19.308 30.494 22.842
C 19.978 31.111 24.836
H 20.473 31.962 24.345
C 20.854 30.448 25.973
H 20.921 31.031 26.868
H 20.523 29.42  26.143
H 21.875 30.264 25.664
C 18.676 31.619 25.512
H 18.884 32.326 26.347
H 18.187 30.676 25.899
C 17.608 32.336 24.627
H 16.675 31.764 24.534
H 17.866 32.496 23.564
C 17.421 33.871 24.877
H 17.541 34.409 23.932
H 18.163 34.249 25.589
C 16.106 34.522 25.316
H 15.42  34.103 24.651
C 16.059 36.081 25.237
H 16.647 36.483 26.075
H 16.286 36.45  24.211
H 15.017 36.315 25.532
C 15.594 33.993 26.683
H 16.313 34.434 27.405
H 15.639 32.918 26.657
C 14.15  34.316 27.022
H 13.65  34.675 26.13 
H 14.294 35.123 27.745
C 13.366 33.224 27.767
H 13.931 32.295 27.686
H 12.513 33.04  27.124
C 13.049 33.308 29.314
H 14.006 33.622 29.756
C 12.58  32.007 29.912
H 13.292 31.218 29.808
H 12.37  32.233 31.013
H 11.701 31.712 29.406
C 12.001 34.432 29.519
H 12.484 35.417 29.439
H 11.122 34.316 28.862
H 11.519 34.433 30.448
