137

Mg 30.328 30.523 34.545
C 28.827 28.389 32.283
C 33.036 30.705 32.252
H 33.906 30.665 31.559
C 31.82  32.793 36.487
H 32.38  33.433 37.172
C 27.847 30.097 36.765
H 27.01  29.917 37.485
N 30.859 29.718 32.42 
C 30.036 28.873 31.699
C 30.667 28.519 30.336
H 30.563 27.506 30.309
C 32.163 29.151 30.449
H 32.388 29.897 29.685
C 31.979 29.977 31.776
C 33.458 28.217 30.36 
H 33.275 27.345 30.98 
H 33.566 27.872 29.337
H 34.376 28.779 30.619
C 29.72  29.078 29.203
H 29.91  30.153 29.154
H 28.754 28.917 29.542
C 30.035 28.597 27.79 
H 30.589 29.37  27.302
H 30.694 27.736 27.853
C 28.95  28.193 26.902
O 28.484 28.908 26.08 
O 28.467 26.959 27.219
N 32.096 31.669 34.376
C 33.088 31.528 33.42 
C 34.274 32.288 33.866
C 33.865 33.056 35.   
C 32.53  32.522 35.332
C 35.591 32.358 33.004
H 35.716 31.332 32.661
H 35.538 33.047 32.173
H 36.435 32.612 33.658
C 34.655 34.143 35.759
H 34.235 34.267 36.726
C 35.709 34.912 35.37 
H 36.128 34.965 34.344
H 36.096 35.657 36.016
N 29.844 31.418 36.335
C 30.543 32.37  36.962
C 29.91  32.633 38.285
C 28.759 31.798 38.312
C 28.813 31.027 37.128
C 30.475 33.626 39.309
H 30.938 34.488 38.802
H 29.663 34.008 39.893
H 31.12  33.11  40.021
C 27.647 31.831 39.366
H 27.382 30.797 39.648
H 27.977 32.359 40.302
C 26.402 32.466 38.867
H 26.668 33.502 38.832
H 26.121 32.256 37.851
H 25.64  32.335 39.585
N 28.611 29.587 34.539
C 27.712 29.405 35.536
C 26.72  28.391 35.199
C 27.097 28.023 33.93 
C 28.256 28.715 33.575
C 25.58  27.816 36.005
H 25.035 26.973 35.487
H 26.016 27.444 36.977
H 24.818 28.522 36.274
C 26.79  27.174 32.796
O 25.844 26.371 32.583
C 27.879 27.343 31.744
H 27.313 27.787 30.889
C 28.423 25.968 31.512
O 29.16  25.372 32.258
O 28.066 25.517 30.279
C 28.779 24.31  29.866
H 28.52  23.472 30.581
H 28.592 23.955 28.874
H 29.795 24.512 30.036
C 27.584 26.386 26.211
H 28.153 25.856 25.429
H 26.884 27.115 25.782
C 26.713 25.425 27.043
H 26.367 25.9   27.953
C 26.244 24.149 26.819
C 26.565 23.154 25.679
H 27.264 23.625 25.037
H 26.803 22.218 26.172
H 25.707 22.953 25.022
C 25.357 23.565 27.877
H 25.388 24.172 28.755
H 25.615 22.536 28.053
C 23.853 23.525 27.381
H 23.516 22.572 27.   
H 23.847 24.145 26.463
C 22.842 24.147 28.392
H 23.325 24.302 29.346
H 22.017 23.434 28.498
C 22.241 25.543 28.061
H 21.798 25.554 27.035
C 23.225 26.707 28.032
H 24.063 26.493 27.316
H 22.662 27.649 27.727
H 23.596 26.731 29.112
C 21.01  25.795 28.849
H 20.328 24.965 28.687
H 20.412 26.647 28.473
C 21.192 25.998 30.329
H 21.549 26.994 30.491
H 21.906 25.339 30.819
C 19.912 25.733 31.196
H 19.084 25.828 30.491
H 19.797 26.548 31.932
C 19.699 24.407 31.972
H 20.45  24.298 32.735
C 19.738 23.18  31.035
H 19.798 22.229 31.543
H 18.88  23.236 30.288
H 20.61  23.213 30.38 
C 18.365 24.575 32.808
H 17.549 24.848 32.184
H 18.606 25.452 33.472
C 17.922 23.262 33.62 
H 18.765 22.603 33.473
H 17.026 22.814 33.208
C 17.739 23.533 35.138
H 17.474 24.59  35.237
H 18.741 23.345 35.542
C 16.745 22.645 35.908
H 16.859 21.577 35.658
C 15.239 22.885 35.623
H 14.61  22.381 36.422
H 15.193 23.982 35.627
H 15.006 22.55  34.61 
C 16.993 22.645 37.447
H 16.621 23.557 37.959
H 16.462 21.765 37.918
H 18.031 22.572 37.85 
