137

Mg 20.556 23.996 36.186
C 18.705 21.173 36.879
C 21.646 22.473 33.33 
H 21.944 21.857 32.546
C 22.198 26.817 35.353
H 22.994 27.516 35.189
C 19.147 25.536 38.932
H 18.703 25.902 39.843
N 20.17  22.064 35.222
C 19.362 21.046 35.711
C 19.189 19.993 34.593
H 19.314 18.968 35.053
C 20.402 20.341 33.717
H 20.137 20.376 32.638
C 20.785 21.707 34.131
C 21.57  19.374 33.964
H 21.883 19.25  35.049
H 21.283 18.399 33.593
H 22.454 19.601 33.287
C 17.797 20.128 34.016
H 17.661 21.076 33.584
H 16.949 19.993 34.78 
C 17.425 19.025 32.96 
H 18.146 18.261 32.99 
H 16.426 18.633 33.048
C 17.503 19.497 31.506
O 18.166 20.431 31.03 
O 16.696 18.701 30.739
N 21.697 24.581 34.648
C 22.075 23.754 33.575
C 22.909 24.557 32.726
C 23.092 25.786 33.323
C 22.234 25.812 34.508
C 23.513 24.031 31.453
H 22.992 23.134 31.1  
H 23.401 24.677 30.592
H 24.546 23.801 31.673
C 23.891 27.009 32.879
H 23.377 27.955 33.025
C 25.133 26.999 32.369
H 25.729 26.055 32.257
H 25.582 28.003 32.188
N 20.626 25.909 37.047
C 21.442 26.896 36.572
C 21.384 28.017 37.479
C 20.431 27.664 38.456
C 19.975 26.335 38.16 
C 22.151 29.312 37.226
H 23.197 29.262 36.951
H 21.672 29.659 36.304
H 22.023 30.055 37.996
C 19.801 28.45  39.66 
H 19.831 27.857 40.523
H 20.567 29.227 39.786
C 18.507 29.109 39.399
H 18.091 29.564 40.333
H 18.544 29.803 38.539
H 17.752 28.365 39.069
N 19.257 23.538 37.63 
C 18.804 24.218 38.756
C 17.967 23.354 39.569
C 17.876 22.202 38.82 
C 18.639 22.327 37.671
C 17.259 23.656 40.923
H 16.819 22.707 41.321
H 18.085 23.845 41.611
H 16.404 24.322 40.856
C 17.21  20.937 38.889
O 16.427 20.455 39.702
C 17.836 20.105 37.733
H 17.116 19.642 37.156
C 18.786 19.081 38.25 
O 19.567 19.311 39.166
O 18.634 17.816 37.723
C 19.681 16.864 38.111
H 19.48  15.942 37.49 
H 20.676 17.239 37.804
H 19.583 16.64  39.161
C 16.677 19.062 29.322
H 17.632 19.264 28.846
H 15.936 19.894 29.179
C 16.053 17.836 28.722
H 16.629 17.419 27.905
C 14.976 17.091 29.074
C 13.932 17.6   30.099
H 13.807 16.942 30.974
H 14.138 18.574 30.54 
H 12.893 17.669 29.674
C 14.415 15.961 28.163
H 15.186 15.755 27.424
H 13.515 16.26  27.586
C 14.05  14.618 28.872
H 14.443 14.49  29.894
H 14.681 13.908 28.385
C 12.564 14.111 28.694
H 12.598 13.33  27.911
H 11.864 14.902 28.374
C 12.045 13.29  29.919
H 12.854 13.062 30.612
C 11.392 11.887 29.576
H 12.073 11.152 29.129
H 11.215 11.387 30.498
H 10.467 11.816 29.035
C 11.067 14.057 30.837
H 11.566 14.964 31.129
H 10.768 13.506 31.735
C  9.746 14.482 30.244
H  9.139 13.58  30.08 
H  9.965 15.018 29.32 
C  8.814 15.485 31.066
H  9.177 15.705 32.11 
H  7.879 15.052 31.318
C  8.495 16.821 30.343
H  8.068 16.628 29.369
C  9.787 17.732 30.127
H  9.725 18.355 29.18 
H  9.87  18.469 30.922
H 10.742 17.25  30.18 
C  7.497 17.681 31.163
H  8.028 18.01  32.071
H  6.717 16.892 31.474
C  6.946 18.86  30.44 
H  7.579 19.175 29.609
H  6.868 19.709 31.15 
C  5.615 18.566 29.824
H  4.975 18.919 30.544
H  5.473 17.481 29.72 
C  5.439 19.257 28.498
H  6.118 20.189 28.432
C  3.93  19.649 28.383
H  3.291 18.777 28.372
H  3.643 20.148 29.317
H  3.952 20.263 27.437
C  5.838 18.402 27.306
H  5.749 18.928 26.379
H  6.87  18.097 27.47 
H  5.158 17.492 27.246
