137

Mg 22.525 18.714 25.451
C 24.94  17.955 23.3  
C 24.406 21.128 26.762
H 25.057 21.67  27.455
C 19.789 19.861 27.054
H 18.987 20.278 27.577
C 20.66  16.13  24.031
H 20.045 15.408 23.501
N 24.377 19.57  24.956
C 25.26  19.125 24.014
C 26.508 19.999 23.88 
H 27.363 19.375 23.804
C 26.483 20.788 25.207
H 26.558 21.806 25.021
C 24.993 20.447 25.742
C 27.739 20.53  26.016
H 27.708 19.431 26.298
H 28.653 20.629 25.491
H 27.799 21.129 26.969
C 26.344 20.979 22.605
H 25.435 21.515 22.737
H 26.248 20.384 21.756
C 27.451 22.008 22.464
H 28.326 21.741 23.051
H 27.918 21.905 21.469
C 27.106 23.421 22.714
O 27.912 24.211 23.174
O 25.821 23.769 22.467
N 22.122 20.307 26.627
C 23.093 21.121 27.161
C 22.465 22.023 28.083
C 21.114 21.734 28.094
C 20.926 20.558 27.269
C 23.108 23.196 28.702
H 23.185 23.078 29.762
H 24.12  23.451 28.234
H 22.42  24.049 28.627
C 20.024 22.483 28.749
H 19.006 22.56  28.415
C 20.204 23.233 29.875
H 21.196 23.328 30.399
H 19.346 23.794 30.311
N 20.581 18.107 25.576
C 19.596 18.723 26.366
C 18.378 18.02  26.185
C 18.619 16.977 25.292
C 19.965 17.031 24.909
C 16.966 18.338 26.852
H 16.903 19.417 27.041
H 16.08  18.093 26.246
H 16.974 17.869 27.837
C 17.599 15.888 24.847
H 18.03  14.87  24.732
H 16.836 15.746 25.545
C 16.944 16.133 23.458
H 17.521 15.612 22.678
H 15.918 15.665 23.568
H 16.738 17.252 23.206
N 22.731 17.376 24.005
C 21.951 16.358 23.576
C 22.535 15.488 22.583
C 23.755 16.166 22.392
C 23.807 17.213 23.339
C 21.975 14.285 22.024
H 22.379 14.173 21.04 
H 22.268 13.427 22.607
H 20.944 14.525 21.793
C 24.993 16.115 21.693
O 25.391 15.412 20.768
C 25.762 17.237 22.268
H 26.006 17.865 21.407
C 26.979 16.687 22.854
O 27.098 16.006 23.834
O 28.084 17.14  22.147
C 29.321 16.368 22.351
H 29.933 16.577 21.482
H 29.816 16.769 23.243
H 29.119 15.303 22.404
C 25.476 25.161 22.884
H 26.061 25.849 22.182
H 25.824 25.347 23.918
C 24.054 25.33  22.749
H 23.807 26.199 22.116
C 23.035 24.772 23.4  
C 23.164 23.763 24.515
H 23.006 22.749 24.141
H 24.085 23.801 25.126
H 22.424 24.166 25.214
C 21.655 25.31  23.067
H 20.98  24.447 23.   
H 21.734 25.912 22.187
C 21.023 26.144 24.178
H 21.835 26.305 24.923
H 20.294 25.585 24.895
C 20.513 27.564 23.869
H 19.502 27.743 24.237
H 20.361 27.779 22.799
C 21.224 28.72  24.607
H 22.246 28.528 24.423
C 21.027 28.673 26.215
H 21.737 29.282 26.752
H 20.069 28.938 26.416
H 21.242 27.671 26.637
C 20.93  30.182 24.104
H 21.631 30.761 24.611
H 20.015 30.562 24.523
C 20.876 30.378 22.597
H 19.919 30.003 22.249
H 21.658 29.83  22.067
C 21.01  31.885 22.253
H 22.055 31.923 21.829
H 21.031 32.554 23.116
C 19.981 32.465 21.27 
H 19.821 31.803 20.398
C 20.512 33.789 20.729
H 19.807 34.203 19.961
H 20.578 34.551 21.501
H 21.539 33.75  20.311
C 18.625 32.717 21.988
H 18.76  33.488 22.73 
H 18.414 31.847 22.596
C 17.476 33.03  21.02 
H 16.806 32.211 21.232
H 17.741 33.065 19.938
C 16.892 34.384 21.33 
H 17.133 35.069 20.492
H 17.317 34.919 22.195
C 15.306 34.421 21.571
H 14.793 34.069 20.673
C 14.88  35.869 21.778
H 15.035 36.448 20.795
H 13.817 35.754 22.026
H 15.461 36.343 22.55 
C 14.888 33.619 22.788
H 13.817 33.342 22.79 
H 15.463 32.678 22.727
H 15.228 34.255 23.587
