137

Mg 33.836 26.247 31.411
C 30.517 25.645 31.561
C 34.165 23.736 29.169
H 34.249 22.88  28.499
C 37.259 26.803 31.328
H 38.302 26.814 31.362
C 33.711 27.894 34.447
H 33.662 28.526 35.38 
N 32.475 24.973 30.359
C 31.128 24.963 30.474
C 30.537 24.06  29.416
H 29.884 23.301 29.897
C 31.728 23.408 28.792
H 31.734 23.539 27.688
C 32.891 24.156 29.44 
C 31.878 21.867 29.075
H 32.566 21.411 28.386
H 32.078 21.59  30.088
H 30.865 21.554 28.689
C 29.613 24.937 28.482
H 30.338 25.435 27.789
H 29.205 25.852 28.913
C 28.505 24.17  27.625
H 28.455 24.426 26.505
H 28.571 23.086 27.71 
C 27.024 24.453 27.913
O 26.259 23.651 28.47 
O 26.681 25.774 27.682
N 35.458 25.531 30.35 
C 35.36  24.371 29.521
C 36.689 24.03  28.906
C 37.544 24.986 29.496
C 36.74  25.867 30.386
C 36.988 22.999 27.807
H 36.737 23.434 26.868
H 38.035 22.539 27.738
H 36.368 22.099 27.877
C 39.021 25.07  29.383
H 39.505 26.039 29.225
C 39.859 23.983 29.305
H 39.496 22.935 29.541
H 40.97  24.138 29.076
N 35.293 27.259 32.689
C 36.606 27.412 32.367
C 37.203 28.227 33.335
C 36.188 28.482 34.318
C 34.985 27.869 33.877
C 38.614 28.602 33.374
H 39.178 27.724 33.613
H 38.864 29.021 32.449
H 38.838 29.429 34.099
C 36.273 29.261 35.557
H 35.73  28.739 36.308
H 37.327 29.371 35.912
C 35.684 30.715 35.383
H 36.134 31.238 36.227
H 36.098 31.227 34.483
H 34.628 30.729 35.366
N 32.443 26.741 32.7  
C 32.494 27.407 33.926
C 31.199 27.394 34.558
C 30.386 26.738 33.611
C 31.166 26.359 32.538
C 30.816 27.885 35.984
H 31.026 27.059 36.697
H 31.478 28.641 36.328
H 29.731 28.013 36.14 
C 29.041 26.276 33.297
O 28.047 26.282 33.998
C 29.008 25.634 31.927
H 28.336 26.239 31.336
C 28.305 24.319 32.091
O 28.844 23.225 32.247
O 26.998 24.375 31.815
C 26.401 23.032 31.689
H 25.331 22.976 31.761
H 26.724 22.575 30.773
H 26.725 22.425 32.546
C 25.27  26.017 28.135
H 25.238 26.178 29.198
H 24.582 25.324 27.782
C 25.01  27.302 27.4  
H 25.33  27.323 26.33 
C 24.653 28.473 27.964
C 24.49  28.867 29.432
H 24.787 28.086 30.06 
H 25.078 29.743 29.669
H 23.405 29.17  29.542
C 24.452 29.696 27.079
H 24.929 29.423 26.161
H 24.857 30.658 27.474
C 22.927 30.031 26.856
H 22.674 31.04  27.182
H 22.425 29.241 27.432
C 22.415 29.613 25.481
H 22.173 28.54  25.611
H 23.132 29.856 24.727
C 21.085 30.233 25.041
H 21.077 31.308 25.161
C 19.874 29.756 25.86 
H 19.022 30.397 25.609
H 19.721 28.681 25.693
H 19.937 29.964 26.91 
C 20.688 29.933 23.575
H 19.6   30.161 23.367
H 20.872 28.842 23.493
C 21.594 30.632 22.531
H 22.161 29.907 21.982
H 22.342 31.369 22.919
C 20.705 31.402 21.511
H 20.566 32.4   21.828
H 19.75  30.967 21.276
C 21.37  31.47  20.035
H 21.542 30.477 19.672
C 22.74  32.228 19.985
H 23.261 32.089 19.011
H 22.49  33.297 19.946
H 23.426 31.88  20.779
C 20.451 32.071 18.987
H 20.139 33.054 19.312
H 19.419 31.611 19.039
C 20.854 31.965 17.506
H 20.031 31.376 17.096
H 21.763 31.367 17.356
C 20.988 33.321 16.89 
H 21.444 34.055 17.559
H 19.933 33.658 16.796
C 21.552 33.441 15.541
H 21.078 32.687 14.909
C 23.099 33.216 15.479
H 23.734 33.914 16.063
H 23.313 32.179 15.797
H 23.386 33.186 14.447
C 21.201 34.821 14.883
H 21.661 35.051 13.96 
H 20.165 34.778 14.789
H 21.513 35.658 15.542
