137

Mg 33.153 31.827 35.434
C 31.183 30.019 33.357
C 35.482 32.223 32.944
H 36.3   32.264 32.223
C 34.966 33.681 37.52 
H 35.453 34.348 38.185
C 30.97  31.005 38.089
H 30.237 30.802 38.871
N 33.305 31.174 33.446
C 32.365 30.491 32.781
C 32.81  30.242 31.302
H 32.957 29.165 31.209
C 34.232 30.789 31.271
H 34.532 31.402 30.418
C 34.355 31.429 32.648
C 35.26  29.75  30.882
H 35.493 29.147 31.77 
H 34.945 29.105 30.007
H 36.213 30.199 30.595
C 31.794 30.807 30.27 
H 31.604 31.907 30.398
H 30.904 30.198 30.47 
C 32.138 30.504 28.816
H 32.433 31.391 28.29 
H 32.92  29.746 28.721
C 30.944 30.091 27.902
O 30.831 30.504 26.749
O 30.132 29.163 28.477
N 34.902 32.944 35.217
C 35.769 32.916 34.184
C 36.823 33.846 34.502
C 36.715 34.287 35.849
C 35.493 33.649 36.248
C 37.946 34.162 33.485
H 38.401 33.207 33.359
H 37.64  34.353 32.509
H 38.521 34.938 33.928
C 37.642 35.071 36.713
H 37.206 35.916 37.353
C 39.013 35.006 36.753
H 39.593 34.252 36.254
H 39.606 35.738 37.341
N 32.964 32.25  37.526
C 33.859 33.058 38.14 
C 33.457 33.289 39.574
C 32.261 32.469 39.693
C 32.042 31.83  38.48 
C 34.237 34.106 40.531
H 33.969 33.774 41.501
H 35.294 33.926 40.316
H 34.076 35.219 40.493
C 31.301 32.492 40.78 
H 30.998 31.471 40.951
H 31.637 32.951 41.705
C 30.142 33.369 40.366
H 29.559 33.069 39.487
H 29.41  33.414 41.145
H 30.5   34.351 40.138
N 31.401 30.803 35.691
C 30.607 30.597 36.779
C 29.47  29.737 36.377
C 29.716 29.455 35.044
C 30.794 30.237 34.631
C 28.311 29.287 37.267
H 27.871 30.046 37.881
H 27.564 28.95  36.617
H 28.566 28.439 37.901
C 29.13  28.77  33.899
O 28.155 28.134 33.746
C 30.13  28.963 32.768
H 29.559 29.313 31.941
C 30.845 27.66  32.436
O 31.723 27.16  33.089
O 30.299 27.071 31.295
C 31.236 26.084 30.724
H 32.172 26.632 30.642
H 31.289 25.276 31.454
H 30.895 25.717 29.795
C 29.268 28.512 27.522
H 29.843 28.151 26.653
H 28.665 29.222 27.063
C 28.523 27.339 28.079
H 27.947 27.538 28.986
C 28.504 25.976 27.712
C 29.247 25.369 26.486
H 29.889 24.549 26.867
H 28.52  24.99  25.758
H 29.833 26.183 25.991
C 27.741 24.839 28.512
H 27.635 25.211 29.562
H 28.353 23.956 28.692
C 26.373 24.419 27.938
H 26.588 23.388 27.59 
H 26.041 25.069 27.073
C 25.3   24.262 29.047
H 24.895 25.253 29.198
H 25.891 23.867 29.881
C 24.138 23.323 28.752
H 24.579 22.331 28.492
C 23.297 23.811 27.553
H 23.873 23.739 26.62 
H 22.322 23.271 27.502
H 22.98  24.846 27.569
C 23.286 22.861 29.908
H 24.04  22.526 30.621
H 22.782 22.02  29.521
C 22.299 23.857 30.496
H 21.413 23.539 29.965
H 22.583 24.873 30.228
C 22.112 23.781 31.995
H 22.376 24.753 32.315
H 22.883 23.141 32.354
C 20.699 23.327 32.556
H 20.376 22.418 31.978
C 19.678 24.491 32.606
H 19.474 24.673 31.556
H 18.719 24.18  33.084
H 20.144 25.365 33.145
C 20.879 22.747 33.967
H 21.067 23.481 34.693
H 21.833 22.155 33.803
C 19.773 21.723 34.497
H 20.321 20.751 34.672
H 19.037 21.634 33.648
C 19.095 22.286 35.837
H 18.411 23.094 35.492
H 19.844 22.536 36.576
C 18.037 21.197 36.404
H 18.396 20.175 36.405
C 16.8   21.085 35.48 
H 16.134 20.346 36.025
H 16.401 22.04  35.303
H 17.106 20.485 34.634
C 17.601 21.529 37.82 
H 17.23  22.566 37.884
H 16.789 20.842 38.058
H 18.446 21.408 38.539
