137

Mg 35.546 34.976 34.55 
C 32.576 33.977 32.802
C 37.066 32.152 33.476
H 37.541 31.298 33.04 
C 38.116 35.763 36.529
H 38.868 36.036 37.297
C 33.717 37.625 35.821
H 33.205 38.473 36.256
N 34.93  33.298 33.228
C 33.678 33.084 32.629
C 33.752 31.921 31.709
H 33.056 31.239 32.097
C 35.124 31.249 31.983
H 35.761 31.238 31.104
C 35.761 32.264 32.958
C 35.053 29.823 32.606
H 34.807 29.837 33.639
H 34.215 29.337 32.032
H 36.008 29.267 32.589
C 33.345 32.289 30.276
H 34.017 33.096 30.001
H 32.319 32.754 30.257
C 33.388 31.17  29.231
H 34.45  31.206 28.884
H 33.203 30.24  29.817
C 32.383 31.078 28.089
O 32.631 30.708 26.95 
O 31.107 31.192 28.643
N 37.31  34.066 34.917
C 37.785 32.952 34.305
C 39.173 32.722 34.795
C 39.537 33.8   35.701
C 38.316 34.628 35.746
C 40.03  31.545 34.261
H 39.64 30.6  34.53
H 40.203 31.567 33.18 
H 41.073 31.553 34.645
C 40.66  34.187 36.563
H 40.919 35.229 36.711
C 41.372 33.274 37.222
H 41.258 32.211 37.162
H 42.078 33.419 38.077
N 35.803 36.335 36.074
C 36.966 36.561 36.725
C 36.9   37.756 37.602
C 35.639 38.234 37.453
C 34.983 37.376 36.408
C 38.111 38.376 38.461
H 38.978 38.582 37.788
H 37.867 39.304 38.985
H 38.462 37.607 39.151
C 34.994 39.279 38.264
H 33.99  38.953 38.543
H 35.472 39.531 39.189
C 34.872 40.554 37.414
H 35.69  41.212 37.589
H 34.814 40.355 36.391
H 34.036 41.135 37.703
N 33.524 35.656 34.445
C 32.927 36.802 35.044
C 31.53  36.862 34.642
C 31.322 35.746 33.78 
C 32.557 35.058 33.673
C 30.58  37.93  34.936
H 29.787 37.998 34.17 
H 30.222 37.952 35.998
H 31.108 38.851 34.778
C 30.353 35.14  32.837
O 29.221 35.468 32.449
C 31.067 33.922 32.253
H 30.957 33.997 31.166
C 30.24  32.696 32.606
O 29.887 32.4   33.769
O 30.107 31.818 31.575
C 29.51  30.52  31.844
H 28.505 30.454 32.23 
H 29.606 29.971 30.978
H 30.157 30.001 32.501
C 30.051 30.711 27.747
H 30.232 29.674 27.351
H 30.    31.246 26.831
C 28.733 30.95  28.52 
H 28.488 32.007 28.633
C 27.759 30.085 28.914
C 27.761 28.659 28.734
H 28.306 28.353 27.83 
H 28.151 28.19  29.674
H 26.769 28.317 28.62 
C 26.544 30.537 29.776
H 26.748 31.615 29.899
H 26.48  30.012 30.726
C 25.081 30.514 29.262
H 25.078 29.803 28.41 
H 24.83  31.468 28.787
C 24.025 30.129 30.315
H 23.431 31.027 30.474
H 24.485 29.958 31.324
C 23.135 28.82  30.072
H 23.754 28.135 29.531
C 21.926 28.988 29.156
H 21.393 28.053 29.172
H 21.284 29.876 29.393
H 22.389 29.151 28.191
C 22.834 28.101 31.415
H 23.675 27.927 32.051
H 22.374 27.144 31.163
C 21.684 28.784 32.233
H 20.687 28.347 32.021
H 21.608 29.833 32.039
C 21.913 28.618 33.721
H 22.324 29.55  34.228
H 22.666 27.855 33.935
C 20.584 28.345 34.52 
H 20.302 27.382 34.041
C 19.553 29.456 34.225
H 18.697 29.585 34.957
H 20.044 30.354 34.074
H 19.101 29.13  33.287
C 20.752 28.06  36.04 
H 19.723 27.813 36.415
H 21.058 28.951 36.511
C 21.772 26.879 36.442
H 22.758 27.32  36.778
H 21.852 26.164 35.576
C 21.274 26.02  37.583
H 20.339 26.517 37.975
H 21.954 25.912 38.395
C 20.729 24.63  37.259
H 21.679 24.142 37.002
C 19.765 24.386 36.097
H 19.681 23.262 35.856
H 18.861 24.791 36.446
H 20.094 24.932 35.184
C 20.184 23.823 38.536
H 19.136 23.902 38.78 
H 20.446 22.782 38.327
H 20.726 24.046 39.411
