137

Mg 20.074 18.441 25.978
C 22.386 18.276 23.43 
C 21.801 20.962 27.361
H 22.334 21.809 27.82 
C 17.687 18.658 28.304
H 16.914 18.741 29.043
C 18.273 15.924 24.376
H 17.845 15.005 23.997
N 21.798 19.574 25.392
C 22.617 19.315 24.286
C 23.922 20.106 24.341
H 24.696 19.445 24.435
C 23.759 20.923 25.701
H 23.681 21.985 25.433
C 22.34  20.538 26.178
C 24.88  20.789 26.756
H 24.852 19.774 27.202
H 25.77  21.029 26.213
H 24.887 21.569 27.532
C 24.193 21.006 23.007
H 23.424 21.793 23.071
H 24.209 20.529 22.025
C 25.591 21.579 23.106
H 25.984 21.387 24.064
H 26.254 21.041 22.386
C 25.989 23.016 22.719
O 26.949 23.386 22.104
O 25.057 23.902 23.268
N 19.884 19.512 27.717
C 20.643 20.596 28.053
C 20.094 21.148 29.279
C 18.859 20.554 29.476
C 18.713 19.551 28.435
C 20.849 22.269 30.119
H 20.553 23.3   29.845
H 20.573 22.216 31.213
H 21.89  22.039 30.035
C 17.83  20.779 30.485
H 17.017 20.043 30.695
C 17.655 21.851 31.291
H 18.341 22.685 31.233
H 16.789 21.958 31.926
N 18.17  17.614 26.183
C 17.346 17.792 27.285
C 16.132 16.911 27.108
C 16.309 16.174 26.022
C 17.602 16.553 25.434
C 15.054 16.986 28.187
H 15.142 18.014 28.588
H 14.083 16.918 27.651
H 15.105 16.337 29.045
C 15.558 14.997 25.573
H 16.199 14.143 25.299
H 14.925 14.671 26.389
C 14.758 15.391 24.354
H 15.487 15.801 23.684
H 14.149 14.514 23.999
H 14.044 16.167 24.616
N 20.19  17.405 24.204
C 19.48  16.295 23.756
C 20.154 15.641 22.651
C 21.327 16.413 22.506
C 21.249 17.488 23.424
C 19.771 14.339 21.953
H 20.621 13.788 21.508
H 19.364 13.672 22.678
H 19.013 14.561 21.213
C 22.59  16.449 21.885
O 23.175 15.775 21.024
C 23.294 17.776 22.355
H 23.368 18.384 21.471
C 24.634 17.293 22.823
O 24.824 16.554 23.769
O 25.629 17.972 22.175
C 26.993 17.774 22.659
H 27.098 18.046 23.681
H 27.193 16.752 22.606
H 27.844 18.267 22.169
C 25.357 25.333 23.097
H 25.648 25.55  22.103
H 26.172 25.508 23.803
C 23.94  25.873 23.444
H 23.205 25.95  22.613
C 23.533 26.318 24.644
C 24.296 26.108 25.973
H 23.599 25.96  26.826
H 24.957 25.24  25.743
H 24.887 27.061 26.237
C 22.143 26.924 24.846
H 21.542 26.417 25.567
H 21.551 26.744 23.955
C 22.132 28.435 25.245
H 23.152 28.71  25.586
H 21.375 28.571 26.023
C 21.816 29.363 24.102
H 20.798 29.781 24.109
H 21.876 28.795 23.181
C 22.58  30.762 24.026
H 23.535 30.63  23.566
C 22.718 31.435 25.444
H 21.723 31.659 25.943
H 23.314 30.761 26.131
H 23.285 32.408 25.341
C 21.963 31.668 22.966
H 22.368 32.609 23.242
H 20.911 31.764 23.209
C 22.375 31.305 21.506
H 21.481 31.442 20.873
H 22.734 30.304 21.499
C 23.43  32.308 20.902
H 24.075 31.589 20.411
H 23.95  32.79  21.773
C 22.896 33.471 19.963
H 22.492 32.999 19.125
C 24.126 34.176 19.41 
H 23.768 34.909 18.636
H 24.674 34.624 20.224
H 24.726 33.433 18.962
C 21.841 34.384 20.647
H 22.401 34.844 21.512
H 21.038 33.821 21.087
C 20.918 35.344 19.76 
H 20.019 34.858 19.45 
H 21.554 35.609 18.882
C 20.533 36.69  20.388
H 20.679 37.556 19.747
H 21.128 36.928 21.234
C 19.027 36.734 20.742
H 18.421 36.808 19.815
C 18.524 38.034 21.52 
H 18.815 38.895 20.937
H 17.455 37.987 21.712
H 19.043 38.066 22.448
C 18.628 35.493 21.602
H 18.812 34.63  21.082
H 19.204 35.528 22.524
H 17.595 35.647 21.821
