137

Mg 21.98  28.006 30.18 
C 24.82  26.029 29.756
C 23.197 28.858 33.255
H 23.598 29.291 34.207
C 19.007 29.547 31.04 
H 18.136 30.118 31.19 
C 20.652 26.749 27.323
H 20.199 26.283 26.455
N 23.819 27.517 31.284
C 24.807 26.791 30.938
C 25.949 26.75  31.971
H 26.015 25.744 32.352
C 25.282 27.612 33.071
H 25.901 28.497 33.203
C 23.996 27.999 32.508
C 25.084 26.827 34.328
H 25.833 26.18  34.639
H 24.922 27.516 35.208
H 24.123 26.265 34.26 
C 27.258 27.276 31.338
H 27.087 28.06  30.64 
H 27.676 26.347 30.838
C 28.395 27.74  32.233
H 28.106 27.588 33.256
H 29.352 27.24  32.048
C 28.674 29.233 32.141
O 29.412 29.755 31.306
O 28.193 29.899 33.179
N 21.239 29.063 31.822
C 21.979 29.334 32.916
C 21.153 30.209 33.797
C 19.947 30.42  33.235
C 20.011 29.677 31.993
C 21.703 30.733 35.143
H 22.743 31.17  35.132
H 21.06  31.557 35.577
H 21.565 29.991 35.907
C 18.797 31.256 33.809
H 17.763 30.89  33.804
C 19.071 32.544 34.234
H 20.083 32.969 34.433
H 18.177 33.075 34.683
N 20.071 28.075 29.36 
C 18.974 28.823 29.854
C 17.885 28.75  28.856
C 18.404 28.002 27.716
C 19.761 27.538 28.128
C 16.494 29.382 28.943
H 15.731 28.629 29.245
H 16.479 30.135 29.686
H 16.234 29.74  27.892
C 17.662 27.702 26.405
H 17.207 28.608 25.978
H 18.346 27.314 25.646
C 16.556 26.546 26.601
H 15.838 26.861 27.324
H 15.974 26.493 25.627
H 17.109 25.627 26.818
N 22.629 26.784 28.725
C 21.981 26.361 27.615
C 22.754 25.286 27.033
C 23.926 25.206 27.785
C 23.759 26.092 28.839
C 22.461 24.42  25.835
H 21.741 24.889 25.145
H 23.41  24.152 25.342
H 21.933 23.494 26.2  
C 25.16  24.436 27.967
O 25.599 23.48  27.318
C 25.787 24.993 29.248
H 26.772 25.404 29.01 
C 25.976 23.846 30.12 
O 25.053 23.17  30.495
O 27.305 23.617 30.438
C 27.465 22.522 31.419
H 27.125 21.528 31.041
H 28.488 22.35  31.702
H 26.893 22.857 32.275
C 28.557 31.299 33.329
H 29.07  31.694 32.5  
H 29.193 31.355 34.175
C 27.189 31.952 33.613
H 27.044 31.849 34.712
C 26.224 32.547 32.873
C 26.223 32.869 31.396
H 26.588 33.885 31.323
H 26.945 32.308 30.882
H 25.175 32.804 30.957
C 25.025 33.121 33.615
H 25.024 32.692 34.596
H 24.145 32.755 33.195
C 24.956 34.672 33.602
H 25.879 35.108 33.511
H 24.661 35.144 34.511
C 24.017 35.204 32.518
H 23.635 34.491 31.807
H 24.583 35.822 31.895
C 22.948 36.112 33.182
H 23.309 36.829 33.938
C 21.766 35.398 33.844
H 22.019 34.638 34.542
H 21.039 36.081 34.291
H 21.157 34.85  33.15 
C 22.389 37.1   32.133
H 21.414 37.537 32.607
H 22.061 36.527 31.267
C 23.305 38.258 31.622
H 23.689 37.858 30.636
H 24.205 38.395 32.249
C 22.503 39.486 31.431
H 22.463 40.03  32.36 
H 21.453 39.189 31.227
C 23.123 40.454 30.408
H 23.344 39.9   29.538
C 24.471 40.962 30.947
H 25.126 40.156 31.4  
H 24.938 41.49  30.125
H 24.289 41.672 31.781
C 22.176 41.596 30.179
H 22.319 42.307 31.018
H 21.17  41.285 30.232
C 22.231 42.357 28.813
H 21.289 42.076 28.234
H 23.082 42.04  28.285
C 22.325 43.919 29.075
H 23.057 44.388 28.374
H 22.621 44.217 30.114
C 21.004 44.756 28.726
H 20.629 44.494 27.761
C 21.258 46.192 28.506
H 20.277 46.758 28.332
H 21.718 46.521 29.489
H 21.953 46.271 27.566
C 19.998 44.643 29.818
H 20.232 44.896 30.817
H 19.133 45.319 29.488
H 19.563 43.643 29.763
