137

Mg 22.932 16.994 29.276
C 25.371 15.303 27.387
C 24.338 19.963 28.289
H 24.879 20.947 28.219
C 20.885 18.563 31.478
H 20.245 19.062 32.253
C 22.056 13.96  30.744
H 21.691 12.975 31.242
N 24.493 17.572 27.753
C 25.324 16.685 27.151
C 26.384 17.453 26.39 
H 27.38  17.221 26.863
C 26.108 18.92  26.645
H 25.765 19.45  25.786
C 24.872 18.85  27.622
C 27.261 19.744 27.248
H 28.133 19.776 26.663
H 26.834 20.724 27.339
H 27.483 19.392 28.276
C 26.484 17.048 24.931
H 25.545 17.335 24.367
H 26.48  15.933 25.02 
C 27.706 17.637 24.233
H 28.354 18.121 24.955
H 28.261 16.912 23.724
C 27.431 18.657 23.187
O 27.139 18.45  22.048
O 27.365 19.905 23.741
N 22.538 18.925 29.667
C 23.346 19.978 29.282
C 22.731 21.184 29.927
C 21.667 20.872 30.709
C 21.686 19.4   30.662
C 23.3   22.497 29.682
H 23.414 22.536 28.612
H 22.761 23.381 29.985
H 24.31  22.495 30.121
C 20.639 21.691 31.429
H 19.587 21.288 31.44 
C 20.903 22.847 32.088
H 21.928 23.302 31.97 
H 20.217 23.345 32.742
N 21.727 16.391 30.82 
C 20.898 17.183 31.592
C 19.886 16.389 32.307
C 20.269 15.058 32.1  
C 21.446 15.099 31.241
C 18.847 16.852 33.284
H 17.908 16.9   32.779
H 18.766 16.16  34.066
H 19.148 17.816 33.657
C 19.524 13.801 32.625
H 20.221 13.154 33.211
H 18.793 14.076 33.401
C 18.781 13.026 31.522
H 19.446 12.461 30.908
H 18.031 12.432 32.028
H 18.197 13.695 30.906
N 23.563 15.035 29.122
C 23.118 13.868 29.783
C 23.93  12.677 29.384
C 24.822 13.258 28.498
C 24.545 14.643 28.343
C 23.658 11.277 29.766
H 23.618 11.221 30.863
H 22.679 10.898 29.398
H 24.461 10.629 29.325
C 25.887 12.929 27.551
O 26.405 11.842 27.223
C 26.263 14.228 26.825
H 26.081 13.918 25.809
C 27.71  14.467 27.163
O 28.137 14.832 28.246
O 28.448 14.341 26.029
C 29.84  14.78  26.214
H 29.822 15.777 26.635
H 30.311 14.078 26.97 
H 30.392 14.64  25.247
C 26.672 20.982 23.019
H 26.181 20.685 22.078
H 27.29  21.749 22.681
C 25.656 21.562 23.897
H 26.116 22.04  24.762
C 24.334 21.608 23.786
C 23.476 21.064 22.633
H 22.72  20.414 23.024
H 23.074 21.922 22.073
H 24.079 20.48  21.927
C 23.465 22.224 24.851
H 23.999 22.331 25.743
H 22.647 21.52  25.121
C 22.683 23.476 24.543
H 21.633 23.269 24.788
H 22.752 23.701 23.464
C 23.07  24.723 25.432
H 23.879 24.412 26.132
H 22.139 24.955 25.82 
C 23.55  25.956 24.588
H 23.139 26.076 23.63 
C 25.163 25.887 24.305
H 25.698 25.807 25.229
H 25.322 25.018 23.6  
H 25.524 26.8   23.859
C 22.941 27.246 25.302
H 23.662 28.033 25.276
H 22.742 26.974 26.376
C 21.617 27.809 24.673
H 21.558 27.38  23.663
H 21.683 28.928 24.65 
C 20.368 27.56  25.447
H 20.69  26.819 26.122
H 19.534 27.228 24.843
C 19.783 28.766 26.251
H 19.47  29.459 25.55 
C 20.769 29.401 27.324
H 21.644 29.971 26.985
H 20.17  30.133 27.897
H 21.116 28.652 28.001
C 18.364 28.591 26.874
H 18.494 27.997 27.798
H 17.823 27.958 26.219
C 17.548 29.887 27.289
H 18.1   30.772 26.921
H 17.546 30.002 28.401
C 16.089 29.842 26.828
H 15.551 29.976 27.796
H 15.824 28.921 26.32 
C 15.717 31.003 25.918
H 15.943 31.865 26.494
C 14.202 30.967 25.705
H 13.967 31.805 25.009
H 13.825 29.981 25.378
H 13.666 31.134 26.683
C 16.441 30.989 24.534
H 16.06  30.088 23.949
H 16.244 31.95  24.059
H 17.499 30.945 24.634
