137

Mg 23.953 31.948 37.232
C 22.331 29.356 38.903
C 20.962 32.623 35.648
H 20.072 32.931 35.159
C 25.492 34.225 35.317
H 26.082 35.011 34.827
C 26.833 31.052 38.756
H 27.697 30.808 39.248
N 21.876 31.093 37.195
C 21.468 30.006 37.975
C 19.988 29.671 37.669
H 20.021 28.669 37.226
C 19.584 30.683 36.61 
H 18.792 31.367 36.916
C 20.879 31.533 36.493
C 19.142 30.045 35.269
H 18.921 30.844 34.57 
H 19.912 29.537 34.732
H 18.215 29.411 35.295
C 19.086 29.697 38.952
H 19.233 30.61  39.474
H 19.502 28.957 39.578
C 17.546 29.465 38.628
H 17.288 29.314 37.548
H 17.103 28.731 39.292
C 16.643 30.662 38.918
O 16.188 30.948 39.991
O 16.657 31.481 37.776
N 23.362 33.232 35.746
C 22.118 33.341 35.288
C 22.105 34.46  34.302
C 23.429 34.929 34.191
C 24.164 34.08  35.099
C 20.857 34.938 33.562
H 20.199 35.46  34.272
H 20.99  35.598 32.725
H 20.291 34.066 33.171
C 24.014 35.98  33.388
H 24.68  36.709 33.945
C 23.83  36.096 32.06 
H 23.238 35.394 31.505
H 24.281 36.81  31.388
N 25.831 32.522 36.966
C 26.263 33.526 36.181
C 27.678 33.803 36.451
C 28.074 32.826 37.414
C 26.878 32.107 37.782
C 28.682 34.679 35.698
H 29.418 34.134 35.169
H 28.265 35.164 34.918
H 29.182 35.383 36.471
C 29.461 32.574 38.031
H 29.616 31.517 38.284
H 30.236 32.914 37.371
C 29.756 33.325 39.35 
H 30.804 33.315 39.554
H 29.514 34.389 39.257
H 29.139 32.925 40.141
N 24.526 30.545 38.589
C 25.74  30.24  39.106
C 25.63  29.143 40.042
C 24.291 28.741 39.961
C 23.697 29.641 39.028
C 26.659 28.713 41.028
H 26.629 29.452 41.893
H 26.404 27.782 41.486
H 27.609 28.799 40.491
C 23.325 27.827 40.415
O 23.5   26.863 41.175
C 22.041 28.16  39.751
H 21.408 28.429 40.531
C 21.628 26.909 38.989
O 22.004 26.582 37.868
O 20.665 26.217 39.728
C 20.132 24.998 39.114
H 19.444 24.659 39.88 
H 19.556 25.198 38.238
H 20.887 24.294 38.793
C 16.166 32.855 37.982
H 17.021 33.415 38.212
H 15.379 33.027 38.727
C 15.468 33.283 36.719
H 14.548 32.745 36.552
C 15.956 34.071 35.741
C 17.255 34.812 35.697
H 17.94  34.415 36.406
H 17.653 34.679 34.637
H 17.084 35.907 35.794
C 15.153 34.178 34.409
H 14.71  33.229 34.225
H 15.836 34.244 33.54 
C 14.    35.242 34.43 
H 14.016 35.991 35.252
H 13.037 34.709 34.599
C 14.008 35.95  33.094
H 12.953 36.067 32.874
H 14.42  35.551 32.185
C 14.45  37.426 33.065
H 13.897 37.92  33.866
C 13.997 38.225 31.743
H 14.363 37.779 30.797
H 12.954 38.265 31.783
H 14.302 39.281 31.786
C 15.95  37.702 33.422
H 16.13  37.254 34.424
H 16.034 38.809 33.285
C 16.9   37.015 32.426
H 16.237 36.483 31.71 
H 17.485 36.305 33.055
C 17.868 38.039 31.822
H 18.77  37.882 32.365
H 17.583 39.116 31.928
C 18.227 37.934 30.321
H 17.397 37.698 29.711
C 19.198 36.75  30.111
H 19.33  36.444 29.035
H 20.184 37.01  30.507
H 18.865 35.832 30.598
C 18.962 39.216 29.88 
H 19.388 38.937 28.891
H 19.778 39.325 30.542
C 18.07  40.436 29.459
H 17.013 40.305 29.738
H 18.092 40.453 28.37 
C 18.482 41.82  30.026
H 18.835 42.508 29.265
H 19.477 41.653 30.441
C 17.518 42.497 30.966
H 17.15  41.795 31.67 
C 16.435 43.219 30.126
H 15.732 43.647 30.837
H 16.991 44.001 29.581
H 15.894 42.502 29.511
C 18.154 43.596 31.823
H 17.442 43.936 32.49 
H 18.98  43.295 32.431
H 18.537 44.409 31.205
