137

Mg 21.947 17.415 31.632
C 25.069 16.28  30.512
C 22.963 20.659 30.868
H 23.155 21.667 30.54 
C 18.931 18.593 32.232
H 17.967 18.958 32.454
C 20.82  14.182 31.999
H 20.507 13.151 32.043
N 23.781 18.323 30.81 
C 24.979 17.643 30.384
C 25.961 18.655 29.739
H 26.883 18.498 30.27 
C 25.369 20.027 30.13 
H 25.254 20.737 29.328
C 23.979 19.689 30.692
C 26.288 20.579 31.226
H 27.332 20.686 30.901
H 26.122 21.622 31.677
H 26.166 19.865 32.069
C 25.989 18.464 28.214
H 24.94  18.639 27.816
H 26.233 17.407 27.893
C 27.049 19.229 27.414
H 27.655 19.851 28.04 
H 27.791 18.532 27.122
C 26.587 20.072 26.287
O 26.916 19.955 25.095
O 25.713 21.035 26.804
N 21.077 19.366 31.741
C 21.619 20.527 31.267
C 20.716 21.611 31.492
C 19.48  21.019 31.829
C 19.807 19.588 31.968
C 21.065 23.094 31.387
H 20.388 23.804 31.837
H 22.073 23.313 31.628
H 20.908 23.358 30.327
C 18.112 21.588 32.125
H 17.504 20.974 32.776
C 17.616 22.771 31.717
H 18.109 23.341 30.913
H 16.594 23.123 31.943
N 20.232 16.531 32.127
C 19.1   17.18  32.323
C 17.988 16.236 32.626
C 18.498 14.947 32.577
C 19.936 15.151 32.278
C 16.578 16.816 32.764
H 16.684 17.615 33.613
H 16.327 17.268 31.798
H 15.812 16.163 33.13 
C 17.847 13.633 32.734
H 18.039 13.101 31.869
H 18.334 13.059 33.521
C 16.331 13.602 32.854
H 16.111 12.514 32.95 
H 15.903 14.066 33.699
H 15.809 13.906 31.955
N 22.748 15.579 31.312
C 22.152 14.327 31.602
C 23.165 13.308 31.383
C 24.359 14.015 31.012
C 24.033 15.391 31.002
C 22.916 11.779 31.373
H 23.311 11.267 32.223
H 21.818 11.633 31.428
H 23.407 11.381 30.43 
C 25.78  13.939 30.485
O 26.524 12.959 30.281
C 26.269 15.398 30.23 
H 26.555 15.477 29.212
C 27.435 15.55  31.136
O 27.331 15.495 32.377
O 28.553 15.654 30.38 
C 29.755 15.484 31.308
H 29.562 14.556 31.872
H 30.678 15.397 30.705
H 29.729 16.364 31.873
C 25.314 21.929 25.746
H 24.908 21.455 24.847
H 26.147 22.621 25.495
C 24.242 22.802 26.271
H 24.293 22.977 27.373
C 23.092 23.286 25.711
C 22.661 23.139 24.232
H 23.267 22.43  23.747
H 21.639 22.721 24.219
H 22.64  24.015 23.723
C 21.993 23.84  26.546
H 22.24  23.467 27.549
H 21.026 23.318 26.332
C 21.989 25.387 26.607
H 22.837 25.729 26.034
H 22.007 25.78  27.66 
C 20.714 25.962 25.972
H 20.014 25.158 25.632
H 20.793 26.671 25.233
C 19.85  26.652 27.079
H 20.328 27.485 27.535
C 19.412 25.639 28.155
H 19.114 24.674 27.714
H 20.206 25.493 28.913
H 18.573 26.059 28.702
C 18.61  27.384 26.411
H 17.889 26.661 26.092
H 18.842 27.857 25.468
C 17.799 28.404 27.252
H 18.525 28.733 28.011
H 16.908 28.001 27.657
C 17.292 29.581 26.495
H 17.085 29.395 25.411
H 18.196 30.168 26.598
C 16.064 30.446 27.048
H 16.156 30.542 28.171
C 14.727 29.755 26.841
H 14.621 29.621 25.796
H 14.696 28.686 27.111
H 13.987 30.349 27.328
C 16.143 31.893 26.52 
H 16.263 32.003 25.394
H 17.029 32.397 26.969
C 15.09  32.899 26.912
H 14.89  33.127 27.981
H 14.146 32.528 26.572
C 15.335 34.296 26.268
H 14.357 34.548 25.812
H 16.111 34.245 25.536
C 15.735 35.468 27.262
H 14.946 35.63  28.004
C 15.94  36.762 26.42 
H 16.321 37.585 26.983
H 16.615 36.548 25.532
H 14.946 37.084 26.056
C 17.003 35.18  28.019
H 17.743 34.813 27.319
H 17.267 36.204 28.381
H 16.775 34.524 28.859
