137

Mg 36.384 26.876 34.529
C 32.915 26.78  34.838
C 36.11  25.514 31.385
H 35.895 24.985 30.459
C 39.669 27.072 34.181
H 40.732 27.066 34.04 
C 36.529 28.356 37.641
H 36.688 28.819 38.564
N 34.746 26.319 33.182
C 33.406 26.359 33.537
C 32.505 26.164 32.315
H 31.67  25.476 32.617
C 33.565 25.516 31.334
H 33.341 26.067 30.434
C 34.906 25.825 31.956
C 33.277 23.999 31.202
H 34.016 23.609 30.485
H 33.517 23.533 32.128
H 32.293 23.762 30.851
C 31.901 27.497 31.816
H 32.737 28.111 31.47 
H 31.403 27.968 32.68 
C 30.883 27.465 30.752
H 31.22  27.9   29.881
H 30.63  26.424 30.6  
C 29.553 28.063 31.099
O 28.601 27.473 31.65 
O 29.43  29.299 30.623
N 37.679 26.325 33.057
C 37.351 25.712 31.938
C 38.529 25.325 31.172
C 39.605 25.821 31.923
C 38.996 26.523 33.097
C 38.516 24.64  29.871
H 37.766 25.007 29.194
H 39.475 24.825 29.357
H 38.387 23.557 30.041
C 41.109 25.749 31.659
H 41.814 26.423 32.013
C 41.682 24.713 31.019
H 41.064 23.831 30.706
H 42.778 24.65  30.929
N 37.81  27.65  35.678
C 39.135 27.653 35.332
C 39.906 28.137 36.396
C 39.01  28.37  37.487
C 37.695 28.174 36.957
C 41.346 28.324 36.315
H 41.847 27.432 35.93 
H 41.529 29.17  35.651
H 41.697 28.552 37.349
C 39.364 28.992 38.819
H 38.955 28.371 39.623
H 40.456 28.884 39.008
C 38.877 30.438 39.016
H 39.361 30.896 39.855
H 39.137 31.044 38.173
H 37.823 30.536 39.126
N 35.03  27.434 35.956
C 35.26  28.    37.233
C 34.018 28.063 37.98 
C 33.041 27.635 37.062
C 33.681 27.252 35.885
C 33.856 28.473 39.45 
H 33.708 29.536 39.399
H 32.877 28.076 39.788
H 34.667 28.13  40.093
C 31.666 27.443 36.856
O 30.733 27.619 37.583
C 31.497 27.072 35.368
H 30.954 27.878 34.835
C 30.635 25.956 35.359
O 30.985 24.795 35.532
O 29.415 26.315 34.847
C 28.529 25.221 34.449
H 29.035 24.643 33.7  
H 28.296 24.572 35.286
H 27.614 25.507 33.951
C 28.087 29.882 30.541
H 27.835 30.288 31.559
H 27.438 29.029 30.305
C 28.027 30.924 29.379
H 28.479 30.563 28.408
C 27.703 32.191 29.56 
C 27.18 32.72 30.83
H 27.127 33.826 30.866
H 26.191 32.334 30.856
H 27.869 32.362 31.647
C 27.927 33.117 28.455
H 28.583 32.793 27.666
H 28.607 33.895 28.897
C 26.649 33.806 27.867
H 26.8   34.867 27.998
H 25.755 33.466 28.383
C 26.491 33.539 26.379
H 27.235 32.81  26.153
H 26.734 34.457 25.805
C 25.072 32.988 25.856
H 24.484 33.806 26.323
C 24.633 31.584 26.604
H 23.753 31.196 26.142
H 25.54  31.067 26.443
H 24.557 31.721 27.683
C 24.888 32.854 24.291
H 23.904 32.562 24.265
H 25.619 32.149 23.949
C 25.2   34.15  23.546
H 26.267 34.227 23.361
H 24.911 35.    24.219
C 24.476 34.486 22.184
H 23.933 35.407 22.291
H 23.735 33.751 21.908
C 25.523 34.848 21.02 
H 26.225 34.074 20.888
C 26.407 36.076 21.451
H 27.209 36.16  20.726
H 25.862 37.019 21.567
H 26.875 36.015 22.431
C 24.761 35.039 19.707
H 25.39  35.49  18.905
H 23.825 35.54  19.84 
C 24.234 33.748 19.054
H 23.143 33.74  18.998
H 24.571 32.977 19.754
C 24.652 33.641 17.589
H 25.698 33.321 17.629
H 24.574 34.639 17.117
C 23.841 32.549 16.734
H 22.884 33.01  16.69 
C 23.578 31.19  17.456
H 22.973 30.534 16.864
H 24.517 30.74  17.668
H 23.083 31.376 18.375
C 24.567 32.267 15.445
H 23.803 31.608 15.02 
H 24.674 33.171 14.86 
H 25.539 31.835 15.744
