137

Mg 18.752 22.614 29.716
C 21.78  23.286 31.459
C 17.275 25.144 31.314
H 16.781 25.934 31.97 
C 15.848 21.681 28.258
H 14.951 21.38  27.765
C 20.416 19.918 28.272
H 20.855 19.046 27.778
N 19.513 24.155 30.997
C 20.794 24.253 31.624
C 20.744 25.473 32.526
H 21.302 25.113 33.416
C 19.218 25.745 32.754
H 18.84 26.77 32.75
C 18.61  25.061 31.535
C 18.705 25.152 34.117
H 17.702 25.447 34.345
H 18.815 24.064 34.131
H 19.29  25.539 34.976
C 21.49  26.593 31.846
H 21.047 26.721 30.885
H 22.482 26.181 31.514
C 21.604 28.    32.62 
H 21.091 28.07  33.619
H 22.641 28.054 33.024
C 21.348 29.229 31.784
O 20.733 29.289 30.725
O 21.907 30.331 32.404
N 16.846 23.493 29.686
C 16.427 24.471 30.471
C 15.035 24.728 30.219
C 14.632 23.769 29.225
C 15.764 22.919 29.021
C 14.124 25.737 30.89 
H 14.567 26.257 31.744
H 13.719 26.484 30.249
H 13.247 25.172 31.325
C 13.225 23.606 28.769
H 12.504 23.919 29.593
C 12.835 23.325 27.483
H 13.542 23.017 26.753
H 11.748 23.207 27.203
N 18.225 21.019 28.521
C 16.951 20.816 28.051
C 16.998 19.649 27.111
C 18.226 19.198 27.148
C 19.069 20.074 27.946
C 15.819 19.181 26.363
H 14.908 19.608 26.808
H 15.965 19.416 25.315
H 15.748 18.108 26.495
C 18.731 17.994 26.44 
H 19.471 17.49  27.098
H 17.93  17.315 26.209
C 19.394 18.3   25.049
H 18.761 19.022 24.515
H 20.312 18.876 25.188
H 19.675 17.35  24.528
N 20.645 21.699 29.845
C 21.172 20.618 29.214
C 22.443 20.327 29.627
C 22.77  21.335 30.556
C 21.602 22.134 30.666
C 23.287 19.087 29.252
H 24.041 19.398 28.523
H 23.786 18.806 30.168
H 22.676 18.186 28.982
C 23.742 21.857 31.547
O 24.874 21.457 31.908
C 23.14  23.189 32.11 
H 23.797 24.063 31.805
C 23.044 22.93  33.56 
O 22.281 22.118 34.066
O 23.8   23.876 34.215
C 23.578 23.882 35.699
H 24.178 23.041 36.031
H 24.008 24.782 36.118
H 22.503 23.76  35.942
C 21.775 31.572 31.621
H 21.844 31.461 30.549
H 22.532 32.261 31.847
C 20.439 32.163 31.867
H 19.587 31.479 31.775
C 20.188 33.376 32.306
C 21.207 34.502 32.403
H 21.764 34.387 31.448
H 20.733 35.503 32.409
H 21.907 34.369 33.224
C 18.767 33.881 32.455
H 18.059 33.144 32.012
H 18.616 34.842 32.006
C 18.334 33.865 33.901
H 18.963 33.259 34.578
H 17.402 33.425 33.94 
C 18.233 35.274 34.535
H 17.169 35.581 34.368
H 18.925 35.983 34.047
C 18.524 35.496 36.059
H 19.64  35.449 36.323
C 17.906 34.39  36.964
H 16.862 34.42  37.041
H 18.073 33.317 36.673
H 18.193 34.581 37.967
C 18.089 36.888 36.611
H 18.443 36.972 37.682
H 16.994 37.018 36.495
C 18.83  38.027 35.884
H 19.838 37.924 35.598
H 18.841 38.883 36.584
C 18.109 38.616 34.648
H 17.247 39.217 35.042
H 17.68  37.81  34.055
C 18.937 39.415 33.595
H 19.7   38.663 33.244
C 19.572 40.693 34.201
H 20.363 41.087 33.55 
H 18.777 41.416 34.229
H 20.027 40.446 35.211
C 18.018 39.691 32.355
H 17.294 40.418 32.611
H 17.422 38.844 32.046
C 18.864 40.347 31.139
H 19.903 40.173 31.385
H 18.627 41.431 31.174
C 18.533 39.732 29.765
H 18.387 40.466 28.968
H 17.553 39.162 29.847
C 19.578 38.712 29.201
H 19.797 37.889 29.892
C 20.95  39.39  28.945
H 21.577 38.639 28.493
H 20.871 40.34  28.346
H 21.429 39.592 29.898
C 19.109 38.084 27.859
H 19.206 38.879 27.145
H 19.707 37.177 27.596
H 18.06  37.861 27.92 
