137

Mg 34.737 31.946 34.907
C 32.866 29.297 33.808
C 37.338 30.855 32.856
H 38.204 30.488 32.258
C 36.692 34.464 36.071
H 37.158 35.441 36.308
C 32.307 32.676 37.262
H 31.632 32.972 38.066
N 35.015 30.365 33.444
C 34.143 29.352 33.168
C 34.587 28.473 31.914
H 34.542 27.42  32.284
C 36.034 28.867 31.794
H 36.129 29.158 30.721
C 36.18  30.074 32.828
C 37.033 27.712 32.15 
H 36.935 27.32  33.141
H 36.735 26.888 31.443
H 38.089 27.918 32.024
C 33.673 28.627 30.609
H 33.813 29.724 30.374
H 32.662 28.426 30.898
C 34.143 27.803 29.369
H 34.983 28.353 28.948
H 34.423 26.829 29.622
C 33.112 27.502 28.311
O 33.141 27.855 27.086
O 32.033 26.74  28.884
N 36.614 32.55  34.455
C 37.547 32.036 33.556
C 38.731 32.851 33.552
C 38.521 33.979 34.39 
C 37.223 33.705 35.007
C 39.964 32.48  32.667
H 40.2   33.246 31.923
H 40.787 32.466 33.439
H 39.925 31.513 32.188
C 39.489 35.147 34.728
H 39.071 36.    35.298
C 40.749 35.272 34.381
H 41.185 34.445 33.901
H 41.386 36.119 34.765
N 34.596 33.325 36.513
C 35.532 34.25  36.903
C 35.072 35.004 37.961
C 33.748 34.512 38.232
C 33.468 33.407 37.378
C 35.88  36.01  38.703
H 36.811 35.504 39.133
H 36.249 36.726 37.949
H 35.4   36.521 39.508
C 32.878 35.153 39.269
H 32.248 34.389 39.71 
H 33.585 35.472 40.036
C 32.153 36.399 38.808
H 31.529 36.843 39.56 
H 32.829 37.194 38.573
H 31.482 36.138 37.955
N 32.988 31.231 35.495
C 32.049 31.586 36.446
C 30.964 30.576 36.475
C 31.188 29.779 35.403
C 32.42  30.162 34.849
C 29.72  30.485 37.284
H 29.362 31.464 37.338
H 29.039 29.908 36.683
H 29.985 30.103 38.271
C 30.619 28.638 34.616
O 29.669 27.942 34.697
C 31.741 28.392 33.537
H 31.215 28.732 32.665
C 31.908 26.948 33.526
O 32.811 26.323 34.101
O 31.034 26.322 32.645
C 31.299 24.959 32.228
H 32.151 24.991 31.525
H 31.533 24.332 33.092
H 30.395 24.605 31.672
C 30.811 26.504 28.083
H 31.046 26.082 27.072
H 30.172 27.347 27.936
C 29.944 25.472 28.79 
H 29.708 25.617 29.82 
C 29.361 24.369 28.389
C 29.48  23.823 26.987
H 29.804 22.772 27.012
H 28.545 23.957 26.449
H 30.174 24.381 26.308
C 28.567 23.46  29.32 
H 28.62  23.878 30.367
H 29.158 22.516 29.404
C 27.089 23.234 28.896
H 26.934 22.204 28.898
H 26.889 23.616 27.817
C 25.985 23.864 29.727
H 25.385 24.652 29.157
H 26.489 24.373 30.591
C 24.907 22.888 30.309
H 25.525 22.147 30.773
C 24.053 22.165 29.27 
H 23.459 21.534 29.888
H 23.347 22.803 28.827
H 24.692 21.66  28.545
C 24.1   23.485 31.529
H 24.746 23.818 32.281
H 23.538 22.656 31.957
C 23.072 24.578 31.117
H 22.078 24.095 31.036
H 23.254 24.851 30.055
C 23.037 25.894 31.918
H 22.823 26.818 31.317
H 24.074 26.03  32.316
C 22.145 25.926 33.161
H 21.186 25.579 32.825
C 21.765 27.345 33.783
H 21.373 27.955 32.94 
H 21.022 27.208 34.571
H 22.62  27.725 34.345
C 22.57  25.002 34.366
H 23.296 25.489 35.006
H 23.009 24.113 33.844
C 21.362 24.499 35.145
H 21.421 23.393 35.017
H 20.436 24.835 34.755
C 21.392 24.809 36.667
H 20.602 25.559 36.937
H 22.309 25.321 36.869
C 21.051 23.622 37.631
H 21.843 22.944 37.527
C 19.748 22.937 37.214
H 19.516 22.071 37.803
H 18.888 23.692 37.143
H 19.843 22.553 36.166
C 20.965 24.097 39.146
H 20.538 23.268 39.725
H 21.898 24.553 39.451
H 20.197 24.881 39.275
