137

Mg 32.138 31.363 36.637
C 30.061 29.006 35.251
C 34.382 30.82  34.121
H 35.084 30.687 33.341
C 34.369 33.21  38.368
H 34.981 33.934 38.905
C 29.955 31.305 39.454
H 29.202 31.34  40.273
N 32.142 30.094 34.839
C 31.169 29.21  34.449
C 31.608 28.549 33.085
H 31.478 27.433 33.093
C 33.144 28.976 32.902
H 33.341 29.385 31.905
C 33.186 30.088 34.01 
C 34.18  27.914 33.095
H 33.903 27.298 33.928
H 34.048 27.262 32.222
H 35.203 28.259 33.126
C 30.737 29.1   31.965
H 30.592 30.196 31.977
H 29.724 28.75  32.159
C 31.132 28.622 30.499
H 31.762 29.367 29.988
H 31.626 27.646 30.557
C 29.975 28.296 29.563
O 29.833 28.858 28.532
O 29.11  27.399 30.098
N 33.996 32.049 36.218
C 34.746 31.73  35.078
C 36.034 32.475 35.191
C 36.014 33.102 36.479
C 34.767 32.774 37.107
C 37.071 32.588 34.081
H 37.773 33.378 34.358
H 37.585 31.665 33.963
H 36.587 32.898 33.19 
C 37.055 34.014 37.064
H 37.548 33.752 38.064
C 37.575 34.973 36.233
H 37.152 35.222 35.245
H 38.387 35.664 36.578
N 32.132 32.17  38.508
C 33.159 32.941 39.053
C 32.758 33.427 40.411
C 31.508 32.833 40.671
C 31.148 32.034 39.5  
C 33.688 34.175 41.352
H 34.552 34.657 40.928
H 33.12  34.962 41.801
H 34.011 33.443 42.136
C 30.704 33.005 41.891
H 30.3   32.052 42.231
H 31.259 33.284 42.731
C 29.454 33.896 41.698
H 28.653 33.701 42.446
H 29.697 34.944 41.76 
H 29.068 33.679 40.762
N 30.416 30.395 37.27 
C 29.539 30.586 38.368
C 28.291 29.876 38.19 
C 28.5   29.18  37.027
C 29.758 29.533 36.488
C 27.146 29.815 39.111
H 27.29  28.997 39.765
H 26.89  30.673 39.749
H 26.269 29.575 38.588
C 27.856 28.219 36.078
O 26.806 27.62  36.087
C 28.9   28.091 34.879
H 28.345 28.255 33.966
C 29.304 26.64  34.778
O 29.687 25.936 35.672
O 29.351 26.246 33.451
C 29.957 24.894 33.174
H 31.092 24.853 33.207
H 29.641 24.097 33.836
H 29.603 24.57  32.167
C 28.    27.129 29.181
H 28.336 26.92  28.202
H 27.347 27.978 29.252
C 27.448 25.9   29.838
H 27.306 25.997 30.96 
C 27.271 24.644 29.371
C 27.634 24.406 27.888
H 27.023 23.606 27.445
H 27.364 25.287 27.288
H 28.701 24.289 27.933
C 26.626 23.433 30.115
H 26.582 23.666 31.219
H 27.249 22.53  29.975
C 25.216 23.196 29.523
H 25.166 22.137 29.228
H 24.988 23.743 28.623
C 24.126 23.456 30.511
H 23.94  24.513 30.418
H 24.455 23.216 31.502
C 22.765 22.778 30.102
H 23.002 21.695 29.963
C 22.234 23.437 28.884
H 22.79  23.182 28.032
H 21.239 22.94  28.903
H 22.032 24.551 29.034
C 21.849 22.738 31.392
H 22.31  22.338 32.273
H 21.145 22.008 31.105
C 21.226 24.092 31.638
H 20.214 23.794 31.925
H 21.017 24.753 30.853
C 21.938 24.898 32.781
H 22.142 25.896 32.409
H 22.882 24.4   32.927
C 21.133 25.066 34.139
H 20.152 25.392 33.977
C 21.746 26.227 35.06 
H 22.215 27.009 34.499
H 20.926 26.662 35.602
H 22.47  25.867 35.776
C 21.183 23.715 34.863
H 22.157 23.644 35.301
H 21.018 22.848 34.157
C 20.115 23.614 35.961
H 19.449 22.753 35.871
H 19.462 24.503 35.925
C 20.677 23.636 37.415
H 19.819 23.973 38.08 
H 21.472 24.366 37.441
C 21.225 22.347 37.98 
H 22.031 22.149 37.254
C 20.239 21.135 38.102
H 20.937 20.272 38.135
H 19.6   21.235 38.982
H 19.544 21.065 37.255
C 22.036 22.6   39.362
H 22.316 21.693 39.904
H 22.88  23.129 39.113
H 21.443 23.122 40.12 
