137

Mg 21.379 18.465 26.231
C 21.908 18.    22.862
C 24.224 20.531 26.244
H 25.042 21.217 26.226
C 21.207 18.635 29.558
H 21.182 18.434 30.635
C 18.588 16.481 26.002
H 17.657 15.964 25.944
N 22.884 19.137 24.709
C 22.832 18.862 23.385
C 23.998 19.533 22.639
H 24.674 18.728 22.343
C 24.806 20.24  23.722
H 24.83  21.322 23.556
C 23.89  19.992 24.956
C 26.291 19.839 23.889
H 26.393 18.774 23.765
H 26.89  20.292 23.066
H 26.641 20.006 24.889
C 23.546 20.467 21.406
H 22.997 21.236 21.878
H 22.882 19.915 20.726
C 24.806 20.843 20.528
H 25.726 20.416 20.986
H 24.687 20.348 19.569
C 25.015 22.352 20.248
O 25.455 22.733 19.19 
O 24.499 23.115 21.247
N 22.537 19.379 27.691
C 23.664 20.228 27.491
C 24.153 20.644 28.77 
C 23.403 19.929 29.741
C 22.333 19.234 29.013
C 25.213 21.7   28.976
H 25.062 22.245 29.911
H 26.196 21.198 28.985
H 25.116 22.433 28.166
C 23.478 20.132 31.235
H 22.519 20.263 31.799
C 24.581 20.388 31.938
H 25.637 20.522 31.525
H 24.658 20.533 33.069
N 20.178 17.643 27.529
C 20.12  17.987 28.904
C 18.963 17.333 29.485
C 18.239 16.696 28.453
C 19.022 17.008 27.257
C 18.595 17.469 30.991
H 19.164 16.737 31.537
H 18.702 18.468 31.423
H 17.524 17.203 31.102
C 16.981 15.873 28.438
H 17.097 14.954 27.84 
H 16.774 15.539 29.382
C 15.746 16.663 27.931
H 14.93  15.953 27.981
H 15.417 17.507 28.536
H 15.965 16.999 26.962
N 20.366 17.456 24.759
C 19.294 16.603 24.808
C 19.082 15.977 23.546
C 20.085 16.471 22.77 
C 20.836 17.359 23.577
C 17.861 15.087 23.21 
H 17.829 14.978 22.16 
H 17.974 14.066 23.639
H 16.96  15.588 23.512
C 20.724 16.373 21.442
O 20.41  15.742 20.485
C 21.861 17.448 21.493
H 21.62  18.112 20.696
C 23.087 16.733 21.068
O 23.53  15.782 21.609
O 23.621 17.338 19.959
C 24.715 16.594 19.39 
H 25.609 16.586 20.062
H 24.34  15.584 19.131
H 25.009 16.968 18.405
C 24.611 24.526 20.906
H 23.863 24.87  20.221
H 25.693 24.764 20.719
C 24.252 25.256 22.218
H 24.98  25.151 23.028
C 23.059 25.923 22.453
C 21.761 26.092 21.557
H 20.903 25.623 21.951
H 21.502 27.17  21.509
H 21.965 25.629 20.592
C 22.704 26.401 23.861
H 23.505 26.055 24.583
H 21.726 25.918 24.049
C 22.514 27.977 24.023
H 21.43  28.168 24.017
H 22.905 28.481 23.074
C 23.064 28.587 25.218
H 23.568 27.87  25.838
H 22.237 28.998 25.753
C 24.167 29.665 24.958
H 23.693 30.431 24.313
C 25.285 29.092 24.117
H 25.902 28.499 24.794
H 24.977 28.467 23.26 
H 25.864 29.95  23.889
C 24.893 30.242 26.251
H 25.476 31.023 25.758
H 25.534 29.519 26.818
C 24.135 31.214 27.214
H 23.128 31.479 26.811
H 24.843 32.048 27.39 
C 24.029 30.716 28.653
H 24.405 31.526 29.277
H 24.718 29.908 28.771
C 22.652 30.305 29.238
H 22.194 29.636 28.501
C 21.827 31.596 29.528
H 20.833 31.301 29.852
H 22.223 32.056 30.378
H 21.724 32.176 28.573
C 22.763 29.483 30.561
H 23.128 30.216 31.319
H 23.653 28.829 30.528
C 21.458 28.798 31.031
H 21.617 27.762 30.972
H 20.516 29.144 30.493
C 20.922 29.076 32.454
H 19.825 29.073 32.367
H 21.186 30.072 32.876
C 21.22  28.067 33.592
H 21.117 27.011 33.303
C 20.24  28.241 34.751
H 20.459 27.492 35.482
H 20.416 29.167 35.321
H 19.212 28.125 34.482
C 22.632 28.086 34.017
H 22.801 27.335 34.748
H 23.375 27.99  33.219
H 22.815 28.999 34.494
