137

Mg 22.383 19.594 28.555
C 22.435 19.313 25.189
C 25.511 20.921 28.426
H 26.536 21.322 28.467
C 22.354 19.809 31.872
H 22.578 19.937 32.996
C 19.245 18.202 28.596
H 18.252 17.809 28.692
N 23.862 19.928 26.948
C 23.682 19.786 25.647
C 24.882 20.328 24.835
H 25.329 19.448 24.345
C 25.858 20.814 25.951
H 26.101 21.822 25.873
C 25.039 20.495 27.217
C 27.212 19.987 26.013
H 27.044 18.821 26.085
H 27.731 20.012 25.056
H 27.842 20.337 26.794
C 24.455 21.443 23.816
H 23.968 22.259 24.387
H 23.751 21.051 23.129
C 25.628 21.917 22.906
H 26.527 21.542 23.359
H 25.432 21.317 21.981
C 25.835 23.287 22.605
O 26.868 23.767 22.248
O 24.709 24.061 22.755
N 23.595 20.375 29.888
C 24.89  20.835 29.711
C 25.565 21.13  30.959
C 24.628 20.87  31.99 
C 23.43  20.352 31.243
C 27.002 21.559 31.014
H 27.203 22.592 30.627
H 27.354 21.529 32.029
H 27.421 20.825 30.369
C 24.899 20.932 33.479
H 24.499 20.107 34.103
C 25.427 22.01  34.139
H 25.69  22.999 33.631
H 25.383 21.944 35.259
N 21.08  18.997 30.003
C 21.321 19.153 31.325
C 20.201 18.602 32.057
C 19.324 18.027 31.135
C 19.835 18.358 29.825
C 20.089 18.45  33.651
H 19.029 18.495 33.934
H 20.578 17.583 33.999
H 20.65  19.251 34.017
C 18.046 17.246 31.516
H 18.265 16.171 31.511
H 17.78  17.435 32.558
C 16.731 17.691 30.9  
H 16.719 18.798 30.872
H 16.595 17.326 29.867
H 15.914 17.297 31.493
N 21.018 19.099 27.272
C 19.711 18.582 27.387
C 19.009 18.595 26.079
C 20.08  18.733 25.207
C 21.26  19.036 25.957
C 17.472 18.31  25.831
H 16.916 18.248 26.759
H 17.036 19.167 25.344
H 17.245 17.456 25.208
C 20.405 18.602 23.785
O 19.704 18.333 22.8  
C 21.943 18.977 23.731
H 22.041 19.88  23.084
C 22.563 17.855 23.099
O 22.929 16.803 23.612
O 22.88  18.125 21.807
C 23.489 17.095 20.992
H 24.465 16.823 21.491
H 22.828 16.241 20.919
H 23.66  17.603 20.011
C 24.876 25.479 22.718
H 25.468 25.789 21.847
H 25.399 25.815 23.61 
C 23.573 26.175 22.733
H 22.734 25.615 23.068
C 23.133 27.375 22.221
C 24.057 28.504 21.631
H 23.991 28.636 20.545
H 23.763 29.493 22.069
H 24.996 28.169 21.857
C 21.673 27.799 22.394
H 21.154 26.935 22.76 
H 21.259 27.899 21.431
C 21.445 28.941 23.374
H 21.23  29.839 22.775
H 22.27  29.094 24.062
C 20.182 28.614 24.306
H 19.647 27.814 23.83 
H 19.533 29.439 24.459
C 20.577 28.112 25.8  
H 21.419 28.663 26.096
C 20.976 26.6   25.872
H 21.17  26.439 26.925
H 20.15  25.999 25.55 
H 21.997 26.383 25.427
C 19.536 28.47  26.892
H 19.58  27.831 27.733
H 18.536 28.258 26.486
C 19.557 29.973 27.309
H 18.663 30.444 26.917
H 20.396 30.462 26.709
C 19.822 30.316 28.737
H 20.689 30.975 28.824
H 20.19  29.373 29.255
C 18.723 30.802 29.666
H 18.215 31.628 29.068
C 19.303 31.506 30.988
H 20.109 30.971 31.524
H 19.897 32.381 30.797
H 18.518 31.791 31.663
C 17.656 29.699 29.819
H 18.262 28.847 30.231
H 17.237 29.334 28.821
C 16.5   30.04  30.766
H 16.225 31.065 30.388
H 16.851 30.036 31.763
C 15.413 29.05  30.661
H 15.852 28.231 30.068
H 14.587 29.536 30.081
C 14.996 28.446 32.079
H 15.878 28.203 32.64 
C 14.278 27.114 31.903
H 14.747 26.491 31.143
H 14.408 26.563 32.816
H 13.26  27.27  31.638
C 14.063 29.308 32.899
H 14.421 30.278 33.182
H 13.153 29.52  32.232
H 13.805 28.703 33.792
