137

Mg 21.635 17.745 25.818
C 23.894 17.321 23.289
C 23.915 19.793 27.36 
H 24.574 20.488 27.788
C 19.331 18.5   28.061
H 18.559 18.641 28.818
C 19.442 15.773 24.035
H 18.667 15.229 23.492
N 23.648 18.489 25.401
C 24.384 18.253 24.253
C 25.656 19.152 24.198
H 26.428 18.36  23.949
C 25.744 19.513 25.662
H 25.951 20.541 25.805
C 24.342 19.294 26.155
C 26.871 18.819 26.501
H 26.808 17.727 26.24 
H 27.787 19.252 26.117
H 26.833 18.895 27.552
C 25.617 20.237 23.217
H 25.017 21.004 23.617
H 25.231 19.858 22.238
C 27.029 20.782 22.984
H 27.753 20.148 23.466
H 27.282 20.857 21.899
C 27.251 22.24  23.455
O 28.171 22.585 24.109
O 26.227 23.13  23.1  
N 21.621 18.918 27.454
C 22.667 19.649 27.979
C 22.226 20.292 29.232
C 20.936 19.923 29.471
C 20.537 19.096 28.277
C 23.151 21.137 30.118
H 22.656 22.006 30.476
H 23.357 20.498 30.965
H 24.088 21.539 29.639
C 20.076 20.195 30.626
H 18.961 20.152 30.467
C 20.475 20.309 31.893
H 21.555 20.466 32.187
H 19.675 20.491 32.641
N 19.742 17.168 26.073
C 18.926 17.671 27.043
C 17.634 17.149 26.823
C 17.72  16.291 25.711
C 19.036 16.351 25.231
C 16.433 17.482 27.673
H 15.577 17.234 27.04 
H 16.381 16.805 28.552
H 16.343 18.552 27.909
C 16.634 15.404 25.141
H 17.069 14.412 24.886
H 15.92  15.292 25.949
C 15.792 16.054 23.99 
H 16.339 16.371 23.087
H 15.074 15.395 23.551
H 15.381 16.955 24.574
N 21.664 16.678 24.094
C 20.755 15.856 23.49 
C 21.237 15.228 22.247
C 22.504 15.765 22.105
C 22.665 16.708 23.21 
C 20.727 14.132 21.336
H 21.565 13.859 20.676
H 20.358 13.289 21.989
H 19.861 14.529 20.719
C 23.697 15.79  21.306
O 24.088 15.178 20.341
C 24.599 16.796 22.058
H 25.015 17.575 21.391
C 25.782 16.004 22.468
O 25.712 15.056 23.237
O 26.942 16.595 22.096
C 28.164 15.976 22.58 
H 28.959 16.625 22.415
H 27.956 15.936 23.609
H 28.263 15.009 22.197
C 26.555 24.5   23.509
H 27.265 24.89  22.732
H 27.072 24.509 24.439
C 25.168 25.266 23.574
H 25.111 25.928 22.733
C 24.161 25.179 24.492
C 24.188 24.21  25.649
H 23.882 23.228 25.342
H 25.179 24.222 26.159
H 23.543 24.614 26.414
C 22.851 25.977 24.257
H 21.994 25.267 24.418
H 22.773 26.316 23.224
C 22.721 27.079 25.262
H 23.709 27.434 25.645
H 22.229 26.642 26.13 
C 21.745 28.156 24.784
H 20.861 27.992 25.382
H 21.541 27.988 23.712
C 22.003 29.638 25.111
H 22.924 29.831 24.573
C 22.295 29.999 26.573
H 22.559 31.046 26.803
H 21.428 29.73  27.241
H 23.161 29.457 26.937
C 20.88  30.57  24.474
H 21.182 31.647 24.833
H 19.849 30.419 24.838
C 20.828 30.555 22.91 
H 19.903 29.973 22.662
H 21.728 30.124 22.474
C 20.707 32.017 22.293
H 21.428 31.993 21.478
H 21.007 32.743 23.031
C 19.269 32.412 21.728
H 18.97  31.609 21.037
C 19.434 33.624 20.84 
H 18.447 33.884 20.434
H 19.776 34.431 21.473
H 20.121 33.518 19.914
C 18.178 32.603 22.848
H 18.315 33.556 23.266
H 18.294 31.876 23.599
C 16.782 32.433 22.249
H 16.278 31.62  22.773
H 16.779 32.168 21.198
C 15.891 33.743 22.305
H 15.664 34.016 21.255
H 16.473 34.548 22.749
C 14.555 33.682 23.196
H 13.884 32.847 22.844
C 13.732 35.042 22.987
H 13.335 35.06  21.997
H 12.933 35.024 23.704
H 14.52  35.826 23.194
C 15.055 33.513 24.645
H 14.188 33.704 25.291
H 15.481 32.583 24.938
H 15.798 34.279 24.754
