137

Mg 23.855 17.547 28.675
C 23.917 15.59  25.845
C 26.718 19.102 27.643
H 27.542 19.682 27.174
C 23.968 19.21  31.588
H 23.945 19.698 32.511
C 21.029 15.837 29.736
H 20.13  15.233 29.977
N 25.108 17.39  26.954
C 24.969 16.52  25.907
C 25.958 16.788 24.757
H 26.447 15.777 24.674
C 26.939 17.79  25.418
H 27.051 18.708 24.881
C 26.217 18.073 26.758
C 28.43  17.225 25.563
H 29.028 17.165 24.62 
H 28.941 18.009 26.174
H 28.516 16.25  26.054
C 25.445 17.269 23.414
H 24.606 17.98  23.339
H 25.01  16.357 22.95 
C 26.496 17.59  22.403
H 27.55  17.629 22.722
H 26.368 16.78  21.681
C 26.252 18.772 21.528
O 26.404 18.831 20.321
O 25.761 19.773 22.206
N 25.19  18.862 29.547
C 26.284 19.413 28.931
C 26.842 20.412 29.792
C 26.059 20.415 30.955
C 25.022 19.476 30.745
C 28.126 21.182 29.504
H 28.59  21.382 30.483
H 28.811 20.526 28.956
H 27.978 22.177 29.015
C 26.212 21.185 32.222
H 26.098 20.706 33.233
C 26.473 22.501 32.217
H 26.592 23.165 31.342
H 26.574 23.066 33.128
N 22.718 17.429 30.445
C 22.988 18.235 31.507
C 21.944 17.962 32.557
C 21.    17.082 31.919
C 21.572 16.776 30.623
C 21.961 18.638 33.935
H 21.112 18.311 34.463
H 22.834 18.224 34.499
H 21.948 19.731 34.032
C 19.752 16.451 32.549
H 19.978 15.407 32.687
H 19.664 16.817 33.602
C 18.506 16.749 31.761
H 18.168 16.03  31.006
H 17.631 16.704 32.395
H 18.428 17.822 31.356
N 22.74  15.963 28.053
C 21.577 15.333 28.541
C 21.095 14.312 27.632
C 22.014 14.323 26.629
C 22.921 15.414 26.838
C 19.826 13.562 27.754
H 19.577 13.126 26.804
H 19.882 12.72  28.451
H 18.945 14.131 28.053
C 22.317 13.75  25.337
O 21.781 12.878 24.663
C 23.587 14.496 24.829
H 23.241 14.779 23.846
C 24.602 13.441 24.716
O 24.894 12.54  25.427
O 25.32  13.697 23.567
C 26.691 13.09  23.509
H 27.307 13.528 24.309
H 26.669 12.015 23.489
H 27.077 13.374 22.513
C 25.431 21.006 21.419
H 24.883 20.649 20.545
H 26.475 21.358 21.153
C 24.762 22.024 22.311
H 25.407 22.381 23.128
C 23.526 22.611 22.232
C 22.424 22.337 21.166
H 22.691 21.707 20.317
H 21.624 21.781 21.681
H 21.965 23.195 20.843
C 23.286 23.72  23.265
H 23.946 23.739 24.153
H 22.34  23.607 23.71 
C 23.513 25.109 22.623
H 22.642 25.737 22.808
H 23.781 25.    21.543
C 24.688 25.773 23.372
H 25.419 24.968 23.707
H 24.266 26.274 24.284
C 25.581 26.788 22.52 
H 25.007 27.328 21.732
C 26.701 25.996 21.768
H 27.452 25.576 22.465
H 26.344 25.255 21.038
H 27.18  26.783 21.181
C 26.182 27.888 23.405
H 27.    28.521 22.976
H 26.593 27.38  24.286
C 25.141 28.848 23.864
H 24.214 28.721 23.373
H 25.534 29.863 23.648
C 24.817 28.793 25.431
H 25.466 29.556 25.873
H 25.129 27.908 25.972
C 23.294 29.121 25.795
H 22.643 28.353 25.406
C 22.828 30.551 25.311
H 23.048 30.706 24.23 
H 21.733 30.624 25.256
H 23.359 31.318 25.987
C 23.08 28.98 27.26
H 23.623 29.78  27.753
H 23.428 27.97  27.589
C 21.643 29.248 27.701
H 21.174 28.811 26.852
H 21.529 30.329 27.717
C 21.067 28.574 28.999
H 21.924 28.324 29.682
H 20.6   27.582 28.814
C 19.984 29.536 29.624
H 20.385 30.459 29.914
C 19.456 28.992 30.918
H 18.84  29.826 31.481
H 18.957 28.065 30.858
H 20.356 28.817 31.531
C 18.815 29.673 28.633
H 18.185 28.784 28.596
H 18.046 30.401 29.013
H 19.04  30.046 27.68 
