137

Mg 27.42  32.429 39.571
C 25.924 29.471 40.254
C 24.274 33.922 39.162
H 23.41  34.497 39.054
C 28.857 35.485 39.378
H 29.39  36.476 39.413
C 30.478 30.983 40.46 
H 31.36  30.579 40.86 
N 25.332 31.782 39.488
C 24.964 30.504 39.906
C 23.492 30.375 40.015
H 23.285 29.509 39.421
C 22.906 31.753 39.46 
H 22.412 32.356 40.232
C 24.228 32.556 39.262
C 22.047 31.706 38.224
H 22.708 31.252 37.448
H 21.113 31.154 38.276
H 21.779 32.76  37.973
C 22.976 29.866 41.425
H 23.047 30.63  42.145
H 23.561 29.01  41.743
C 21.505 29.412 41.543
H 21.068 29.    40.599
H 21.553 28.479 42.174
C 20.521 30.305 42.198
O 20.161 30.322 43.372
O 20.253 31.299 41.279
N 26.687 34.438 39.177
C 25.424 34.798 39.117
C 25.364 36.325 39.004
C 26.697 36.74  38.974
C 27.475 35.541 39.109
C 24.088 37.168 38.95 
H 24.269 38.089 38.383
H 23.311 36.511 38.447
H 23.878 37.42  39.975
C 27.289 38.136 38.888
H 28.359 38.187 38.652
C 26.678 39.309 39.147
H 25.649 39.426 39.516
H 27.187 40.264 39.103
N 29.335 33.059 39.905
C 29.689 34.334 39.734
C 31.099 34.403 40.115
C 31.535 33.194 40.528
C 30.42  32.34  40.304
C 32.053 35.6   39.971
H 31.649 36.574 39.67 
H 32.591 35.648 40.938
H 32.72  35.299 39.202
C 32.976 32.794 40.742
H 33.325 32.181 39.934
H 33.595 33.644 40.659
C 33.174 32.146 42.159
H 34.23  32.083 42.389
H 32.765 32.763 42.921
H 32.641 31.261 42.149
N 28.137 30.617 40.005
C 29.44  30.098 40.266
C 29.404 28.711 40.639
C 28.061 28.389 40.476
C 27.324 29.569 40.235
C 30.534 27.926 41.161
H 31.411 28.242 40.637
H 30.594 28.281 42.166
H 30.448 26.818 41.073
C 27.187 27.3   40.521
O 27.333 26.12  40.783
C 25.791 27.895 40.33 
H 25.162 27.615 41.181
C 25.19  27.249 39.168
O 25.61  27.412 38.02 
O 24.124 26.433 39.469
C 23.714 25.617 38.351
H 23.518 24.667 38.778
H 22.723 25.957 37.928
H 24.361 25.361 37.534
C 19.443 32.37  41.799
H 19.944 32.738 42.666
H 18.421 32.064 42.071
C 19.381 33.282 40.587
H 18.928 32.844 39.676
C 20.188 34.358 40.373
C 21.065 35.032 41.348
H 22.038 34.624 41.198
H 21.172 36.104 41.142
H 20.722 34.954 42.427
C 20.232 34.928 38.946
H 20.019 34.138 38.229
H 21.313 35.152 38.877
C 19.495 36.245 38.611
H 20.088 36.992 38.159
H 19.388 36.683 39.615
C 18.124 36.091 38.023
H 17.66  35.514 38.817
H 18.159 35.371 37.15 
C 17.495 37.434 37.565
H 17.676 38.154 38.359
C 15.905 37.363 37.394
H 15.492 38.277 36.909
H 15.69  36.513 36.792
H 15.401 37.314 38.351
C 18.144 37.997 36.32 
H 19.169 38.232 36.522
H 17.652 38.94  36.176
C 17.747 37.263 35.03 
H 17.056 37.806 34.419
H 17.367 36.27  35.25 
C 18.958 36.978 34.182
H 19.846 37.129 34.784
H 19.114 37.862 33.444
C 19.1   35.665 33.398
H 19.336 34.827 34.036
C 20.452 35.657 32.561
H 20.31  36.188 31.634
H 21.218 36.245 33.144
H 20.841 34.711 32.257
C 17.798 35.299 32.474
H 17.854 36.009 31.712
H 16.83  35.457 32.922
C 17.92  33.96  31.732
H 18.608 33.393 32.314
H 18.314 34.221 30.709
C 16.561 33.178 31.713
H 15.857 33.764 32.359
H 16.641 32.291 32.26 
C 15.857 32.825 30.358
H 15.655 33.715 29.815
C 14.446 32.231 30.503
H 14.23  31.781 29.573
H 14.42  31.5   31.364
H 13.624 32.988 30.563
C 16.796 31.982 29.446
H 16.291 31.719 28.564
H 17.811 32.448 29.364
H 17.034 31.097 29.988
