137

Mg 26.022 31.67  33.557
C 25.429 30.745 36.867
C 22.576 31.653 33.099
H 21.53  31.484 32.822
C 26.644 33.188 30.717
H 26.739 33.735 29.746
C 29.473 31.923 34.356
H 30.451 32.036 34.807
N 24.293 31.278 34.759
C 24.276 30.85  36.086
C 22.844 30.627 36.611
H 22.872 29.732 37.188
C 22.096 30.439 35.325
H 21.148 30.968 35.416
C 22.997 31.172 34.316
C 21.776 29.01  34.952
H 22.64  28.335 34.998
H 20.986 28.699 35.592
H 21.217 28.948 33.979
C 22.296 31.729 37.438
H 21.918 32.547 36.802
H 23.072 32.123 38.1  
C 21.199 31.497 38.544
H 20.497 30.789 38.031
H 21.545 31.038 39.456
C 20.547 32.766 38.941
O 21.095 33.631 39.657
O 19.218 32.825 38.563
N 24.791 32.311 32.121
C 23.418 32.268 32.091
C 22.971 32.813 30.81 
C 24.137 33.22  30.114
C 25.246 32.966 31.018
C 21.481 32.814 30.369
H 21.195 31.84  29.916
H 20.796 33.189 31.145
H 21.409 33.587 29.578
C 24.262 33.932 28.815
H 25.006 34.723 28.653
C 23.541 33.6   27.705
H 22.905 32.669 27.677
H 23.579 34.266 26.768
N 27.842 32.269 32.586
C 27.848 32.857 31.406
C 29.174 33.153 30.954
C 29.992 32.773 32.045
C 29.132 32.253 33.028
C 29.468 33.599 29.499
H 30.089 32.827 29.055
H 28.597 33.713 28.914
H 29.911 34.562 29.502
C 31.504 32.874 32.124
H 31.774 32.077 32.732
H 32.004 32.911 31.083
C 31.76  34.215 32.837
H 32.777 34.572 32.609
H 30.987 34.858 32.435
H 31.698 34.301 33.911
N 27.242 31.303 35.172
C 28.573 31.393 35.373
C 28.919 31.157 36.786
C 27.72  30.895 37.408
C 26.724 31.008 36.434
C 30.265 31.163 37.377
H 30.767 30.265 37.126
H 30.858 32.012 36.944
H 30.053 31.296 38.395
C 27.019 30.486 38.639
O 27.458 30.363 39.779
C 25.538 30.379 38.345
H 24.931 30.943 38.994
C 25.24  28.969 38.61 
O 25.922 28.003 38.325
O 24.004 28.855 39.263
C 23.539 27.515 39.667
H 23.004 27.002 38.874
H 24.331 27.023 40.169
H 22.838 27.714 40.459
C 18.472 33.914 39.045
H 19.018 34.838 38.942
H 18.419 33.771 40.155
C 17.077 33.981 38.413
H 16.888 35.011 38.144
C 16.009 33.195 38.25 
C 15.93  31.871 38.837
H 16.808 31.48  39.411
H 15.107 31.824 39.569
H 15.626 31.159 38.067
C 14.82  33.825 37.682
H 15.05  34.893 37.232
H 14.234 34.016 38.516
C 13.986 33.132 36.593
H 13.101 32.746 37.209
H 14.503 32.305 36.197
C 13.492 34.166 35.482
H 13.85  35.173 35.501
H 12.413 34.25  35.491
C 13.99  33.825 34.042
H 15.029 33.561 34.056
C 13.764 34.974 33.011
H 13.994 34.579 32.078
H 12.747 35.341 32.993
H 14.444 35.789 33.183
C 13.324 32.56  33.534
H 13.646 31.699 34.145
H 13.636 32.479 32.506
C 11.79  32.529 33.39 
H 11.545 32.512 32.266
H 11.427 33.493 33.805
C 11.119 31.423 34.204
H 10.92  31.892 35.183
H 11.701 30.496 34.348
C  9.771 30.841 33.729
H  9.175 31.68  33.336
C  8.901 30.183 34.89 
H  7.926 29.888 34.605
H  9.544 29.384 35.244
H  8.829 30.895 35.707
C  9.98  29.922 32.585
H 10.3   29.012 33.081
H 10.839 30.186 31.996
C  8.814 29.507 31.632
H  7.941 30.185 31.929
H  8.445 28.527 31.968
C  9.052 29.522 30.171
H  8.607 28.575 29.791
H 10.08  29.615 29.919
C  8.241 30.551 29.416
H  7.172 30.181 29.412
C  8.66  30.465 27.844
H  8.149 31.312 27.344
H  9.731 30.536 27.733
H  8.314 29.544 27.44 
C  8.368 32.006 29.854
H  8.346 32.738 29.011
H  7.609 32.324 30.55 
H  9.299 32.065 30.417
