137

Mg 21.21  18.082 27.002
C 21.163 17.94  23.518
C 24.477 19.256 26.65 
H 25.459 19.585 26.574
C 21.529 17.82  30.289
H 21.739 17.665 31.3  
C 18.297 16.265 27.067
H 17.346 15.747 27.088
N 22.609 18.592 25.257
C 22.403 18.451 23.984
C 23.466 19.151 23.117
H 23.804 18.381 22.427
C 24.569 19.328 24.197
H 24.876 20.309 24.14 
C 23.832 19.14  25.455
C 25.776 18.393 24.021
H 25.515 17.342 23.832
H 26.353 18.517 23.18 
H 26.408 18.51  24.845
C 23.092 20.511 22.334
H 22.542 21.311 22.903
H 22.258 20.322 21.605
C 24.217 21.249 21.553
H 25.226 20.879 21.856
H 24.203 21.004 20.506
C 24.15  22.848 21.532
O 24.202 23.53  20.503
O 24.156 23.377 22.808
N 22.696 18.639 28.273
C 23.982 19.032 27.937
C 24.7   19.243 29.176
C 23.826 18.787 30.25 
C 22.641 18.371 29.614
C 26.084 19.777 29.278
H 26.866 19.036 29.183
H 26.17  20.575 28.55 
H 26.323 20.221 30.286
C 24.146 18.735 31.705
H 23.522 19.319 32.355
C 25.169 18.04  32.181
H 25.765 17.344 31.527
H 25.486 18.115 33.197
N 20.105 17.153 28.396
C 20.365 17.261 29.78 
C 19.2   16.789 30.562
C 18.332 16.25  29.544
C 18.865 16.541 28.292
C 19.05  16.657 32.01 
H 19.701 15.853 32.304
H 19.448 17.563 32.419
H 18.023 16.683 32.478
C 17.122 15.494 29.925
H 17.17  14.596 29.313
H 17.03  15.223 30.95 
C 15.81  16.163 29.557
H 15.788 17.164 29.939
H 15.797 16.275 28.478
H 14.977 15.639 29.997
N 19.963 17.253 25.704
C 18.811 16.514 25.802
C 18.165 16.2   24.562
C 19.089 16.695 23.589
C 20.142 17.356 24.366
C 16.906 15.407 24.315
H 16.086 16.031 24.619
H 16.714 15.184 23.287
H 16.97  14.493 24.909
C 19.409 16.929 22.171
O 18.893 16.51  21.156
C 20.722 17.697 22.095
H 20.402 18.598 21.587
C 21.726 16.906 21.403
O 22.142 15.854 21.844
O 22.142 17.452 20.194
C 23.235 16.902 19.472
H 24.219 17.199 19.721
H 23.164 15.859 19.531
H 23.142 17.33  18.512
C 24.032 24.847 22.781
H 23.118 25.204 22.296
H 24.917 25.272 22.306
C 24.016 25.299 24.182
H 24.985 25.465 24.558
C 23.04  25.802 24.945
C 21.545 25.835 24.549
H 21.245 26.855 24.337
H 21.356 25.341 23.577
H 20.98  25.385 25.281
C 23.331 26.427 26.271
H 24.42  26.423 26.546
H 22.815 25.815 27.01 
C 22.786 27.874 26.345
H 21.776 27.887 26.716
H 23.011 28.399 25.434
C 23.626 28.755 27.464
H 24.172 28.169 28.143
H 22.779 29.026 28.134
C 24.401 29.957 27.045
H 23.82  30.58  26.287
C 25.659 29.649 26.302
H 26.169 28.997 26.965
H 25.394 29.129 25.396
H 26.177 30.545 26.042
C 24.604 31.021 28.207
H 24.9   31.889 27.742
H 25.44  30.658 28.801
C 23.402 31.462 29.087
H 22.574 31.284 28.435
H 23.434 32.58  29.155
C 23.203 30.748 30.399
H 23.436 31.514 31.168
H 23.877 29.885 30.502
C 21.878 30.068 30.682
H 21.746 29.123 30.041
C 20.624 30.828 30.251
H 19.639 30.607 30.684
H 20.645 31.885 30.584
H 20.541 30.78  29.145
C 21.856 29.636 32.102
H 22.124 30.503 32.806
H 22.669 28.92  32.341
C 20.635 28.814 32.528
H 20.999 27.778 32.522
H 19.85  28.85  31.796
C 20.109 29.252 33.923
H 19.031 29.125 33.846
H 20.158 30.359 33.957
C 20.728 28.488 35.092
H 20.592 27.462 34.835
C 19.975 28.821 36.4  
H 20.046 27.911 37.022
H 20.276 29.703 36.979
H 18.897 28.821 36.191
C 22.256 28.828 35.293
H 22.612 28.433 36.279
H 22.979 28.358 34.55 
H 22.4   29.866 35.397
