137

Mg 29.021 28.335 33.45 
C 26.88  27.034 31.016
C 31.526 28.358 31.146
H 32.316 28.439 30.364
C 31.038 29.971 35.692
H 31.697 30.461 36.439
C 26.367 28.541 35.691
H 25.487 28.488 36.328
N 29.092 27.849 31.306
C 28.143 27.366 30.525
C 28.607 27.275 29.064
H 28.477 26.244 28.67 
C 30.091 27.52  29.137
H 30.381 28.386 28.512
C 30.274 27.985 30.592
C 30.946 26.409 28.561
H 30.758 25.575 29.301
H 30.512 26.164 27.653
H 32.029 26.658 28.446
C 27.752 28.147 28.05 
H 28.13  29.175 28.153
H 26.77  28.305 28.425
C 27.822 27.789 26.568
H 28.51  28.486 26.179
H 28.122 26.726 26.372
C 26.569 27.864 25.757
O 26.412 28.482 24.72 
O 25.658 27.1   26.417
N 31.063 28.922 33.487
C 31.934 28.901 32.432
C 33.21  29.423 32.806
C 33.128 29.961 34.117
C 31.686 29.661 34.465
C 34.442 29.335 31.838
H 35.312 28.937 32.382
H 34.353 28.767 30.922
H 34.877 30.272 31.567
C 34.118 30.624 35.067
H 33.703 30.963 35.983
C 35.419 30.656 34.766
H 35.815 30.201 33.869
H 36.223 31.18  35.457
N 28.76  29.091 35.395
C 29.714 29.772 36.092
C 29.129 30.079 37.418
C 27.771 29.635 37.438
C 27.589 29.056 36.144
C 29.94  30.742 38.439
H 30.111 31.699 37.972
H 29.403 30.725 39.357
H 30.942 30.202 38.563
C 26.761 29.749 38.505
H 26.163 28.874 38.625
H 27.275 29.991 39.47 
C 25.777 30.874 38.272
H 25.018 30.606 37.532
H 25.381 31.09  39.21 
H 26.213 31.804 37.9  
N 27.078 27.789 33.442
C 26.086 27.91  34.397
C 24.826 27.326 33.915
C 25.088 26.9   32.6  
C 26.47  27.269 32.341
C 23.463 27.191 34.567
H 22.953 26.294 34.25 
H 23.598 27.313 35.639
H 22.825 27.992 34.162
C 24.56  26.321 31.396
O 23.444 25.916 31.168
C 25.759 26.185 30.374
H 25.421 26.733 29.482
C 26.096 24.767 30.066
O 27.065 24.107 30.421
O 25.219 24.299 29.127
C 25.547 22.967 28.65 
H 26.555 22.759 28.461
H 25.106 22.395 29.475
H 25.048 22.703 27.731
C 24.35  26.941 25.777
H 24.504 26.374 24.893
H 23.951 27.924 25.575
C 23.539 26.272 26.84 
H 23.444 26.85  27.746
C 22.854 25.108 26.683
C 22.97  24.214 25.403
H 22.085 23.592 25.265
H 23.169 24.787 24.522
H 23.901 23.598 25.565
C 21.946 24.646 27.813
H 22.044 25.481 28.522
H 22.475 23.749 28.181
C 20.582 24.155 27.421
H 20.756 23.2   26.949
H 20.21  24.868 26.752
C 19.689 24.118 28.676
H 19.325 25.078 28.755
H 20.189 23.894 29.579
C 18.55  23.088 28.574
H 17.922 23.21  27.665
C 17.562 23.415 29.74 
H 17.731 23.083 30.764
H 17.254 24.413 29.67 
H 16.652 22.95  29.408
C 19.029 21.609 28.726
H 19.293 21.432 27.693
H 18.137 20.966 28.936
C 20.124 21.188 29.686
H 19.887 21.569 30.717
H 21.143 21.629 29.466
C 20.33  19.672 29.634
H 21.345 19.522 29.369
H 19.644 19.138 28.901
C 20.101 18.939 30.976
H 20.725 19.384 31.762
C 20.672 17.509 30.982
H 20.624 17.15  32.038
H 20.156 16.931 30.349
H 21.73  17.548 30.749
C 18.585 19.01  31.308
H 18.095 18.501 30.464
H 18.255 20.063 31.078
C 18.187 18.415 32.673
H 18.121 19.228 33.408
H 18.848 17.651 33.037
C 16.819 17.705 32.594
H 17.037 16.675 32.665
H 16.428 17.952 31.65 
C 15.811 18.088 33.702
H 16.248 17.971 34.709
C 14.71  17.047 33.708
H 14.211 16.887 32.735
H 15.141 16.078 34.048
H 14.083 17.316 34.555
C 15.173 19.502 33.639
H 15.    19.835 32.638
H 14.196 19.402 34.164
H 15.81  20.188 34.195
