137

Mg 36.637 35.084 34.957
C 33.332 34.588 35.756
C 36.358 32.585 32.523
H 36.371 31.675 31.972
C 39.576 35.952 33.73 
H 40.606 36.192 33.48 
C 36.729 37.635 37.257
H 36.773 38.401 37.994
N 35.011 33.848 34.139
C 33.738 33.758 34.674
C 32.945 32.649 34.02 
H 32.584 32.105 34.873
C 33.974 31.922 33.237
H 33.629 31.765 32.231
C 35.195 32.842 33.253
C 34.311 30.512 33.772
H 33.388 29.967 33.779
H 35.077 29.951 33.176
H 34.626 30.68  34.802
C 31.774 33.231 33.212
H 32.171 33.56  32.237
H 31.373 34.067 33.786
C 30.645 32.237 32.817
H 30.944 31.702 31.904
H 30.589 31.421 33.574
C 29.169 32.762 32.674
O 28.789 33.426 31.695
O 28.378 32.515 33.763
N 37.737 34.432 33.386
C 37.497 33.404 32.573
C 38.643 33.168 31.68 
C 39.529 34.259 31.956
C 38.911 34.956 32.999
C 38.726 32.081 30.574
H 39.766 31.877 30.331
H 38.347 31.193 31.07 
H 38.112 32.337 29.702
C 40.871 34.555 31.384
H 41.669 34.954 32.069
C 41.081 34.577 30.073
H 40.248 34.522 29.41 
H 42.032 34.916 29.657
N 37.89  36.549 35.369
C 39.082 36.715 34.766
C 39.792 37.917 35.309
C 38.976 38.389 36.325
C 37.837 37.512 36.428
C 41.154 38.492 34.874
H 41.67  37.692 34.362
H 41.004 39.295 34.185
H 41.828 38.892 35.607
C 39.223 39.487 37.325
H 38.769 39.166 38.284
H 40.233 39.608 37.522
C 38.552 40.757 36.885
H 38.798 41.634 37.462
H 38.895 40.908 35.871
H 37.488 40.528 36.82 
N 35.41  35.878 36.353
C 35.568 36.941 37.216
C 34.313 37.221 37.843
C 33.472 36.172 37.496
C 34.132 35.491 36.439
C 34.105 38.221 38.966
H 34.885 38.079 39.752
H 34.132 39.183 38.647
H 33.23  38.096 39.543
C 32.163 35.571 37.729
O 31.229 35.867 38.449
C 31.989 34.594 36.543
H 31.191 34.919 35.92 
C 31.627 33.251 37.051
O 32.281 32.508 37.78 
O 30.463 32.91  36.389
C 29.899 31.629 36.879
H 28.93  31.537 36.476
H 30.584 30.881 36.536
H 29.807 31.464 37.952
C 27.049 33.159 33.851
H 26.671 33.234 32.77 
H 27.358 34.21  34.021
C 26.148 32.834 35.049
H 26.363 33.328 35.95 
C 24.971 32.167 34.952
C 24.586 31.424 33.75 
H 24.918 30.38  33.931
H 23.518 31.533 33.39 
H 25.088 31.82  32.883
C 24.11  31.931 36.201
H 24.743 31.972 37.079
H 23.668 30.953 36.328
C 23.085 33.114 36.375
H 23.56  33.969 35.898
H 23.023 33.379 37.336
C 21.653 32.697 35.935
H 21.077 32.344 36.782
H 21.74  31.813 35.254
C 20.83  33.822 35.239
H 21.432 34.347 34.506
C 20.349 34.761 36.393
H 19.562 35.459 35.969
H 19.886 34.154 37.176
H 21.133 35.392 36.834
C 19.597 33.323 34.419
H 19.946 32.667 33.595
H 19.123 34.188 33.959
C 18.521 32.549 35.264
H 17.645 33.134 35.322
H 18.925 32.484 36.218
C 17.973 31.245 34.569
H 18.672 30.953 33.739
H 17.008 31.462 34.18 
C 17.816 29.961 35.415
H 17.074 30.187 36.154
C 19.156 29.596 36.215
H 19.531 30.385 36.955
H 18.976 28.83  36.939
H 19.807 29.187 35.439
C 17.27  28.812 34.54 
H 16.849 28.098 35.173
H 18.16  28.451 34.003
C 16.157 29.143 33.534
H 16.735 29.24  32.568
H 15.647 30.058 33.935
C 15.093 28.062 33.414
H 14.557 28.016 34.323
H 15.642 27.161 33.249
C 14.08  28.27  32.321
H 14.557 28.42  31.447
C 13.257 29.517 32.409
H 12.461 29.552 31.733
H 12.836 29.62  33.402
H 13.889 30.399 32.262
C 13.124 27.14  32.086
H 12.57  27.091 31.117
H 13.63  26.176 32.11 
H 12.517 26.939 32.961
