137

Mg 30.585 29.606 38.712
C 27.52  29.085 40.113
C 29.301 28.934 35.675
H 28.928 28.836 34.689
C 33.489 30.74  37.374
H 34.388 31.291 36.918
C 31.616 30.857 41.886
H 31.998 31.164 42.862
N 28.73  29.133 37.986
C 27.587 28.962 38.739
C 26.408 28.644 37.923
H 25.914 27.886 38.478
C 27.01  28.221 36.572
H 26.41  28.666 35.799
C 28.44  28.786 36.711
C 26.913 26.731 36.229
H 25.863 26.501 36.191
H 27.413 26.751 35.301
H 27.534 26.079 36.908
C 25.367 29.832 37.75 
H 25.861 30.594 37.167
H 25.221 30.306 38.78 
C 23.964 29.472 37.108
H 23.739 28.462 37.38 
H 23.259 30.061 37.73 
C 23.842 29.613 35.617
O 23.555 30.676 35.06 
O 24.161 28.448 35.009
N 31.26  29.824 36.839
C 30.581 29.432 35.664
C 31.359 29.817 34.495
C 32.613 30.254 35.023
C 32.531 30.252 36.482
C 30.973 29.621 33.142
H 31.546 30.203 32.415
H 30.946 28.543 32.929
H 30.021 30.067 33.098
C 33.845 30.657 34.288
H 34.446 31.474 34.721
C 34.269 30.061 33.168
H 33.717 29.245 32.607
H 35.219 30.407 32.732
N 32.341 30.612 39.518
C 33.417 30.933 38.761
C 34.354 31.578 39.614
C 33.824 31.663 40.933
C 32.497 31.063 40.826
C 35.621 32.284 39.034
H 35.206 33.147 38.55 
H 36.307 32.632 39.881
H 36.127 31.562 38.365
C 34.503 32.227 42.169
H 34.267 31.698 43.022
H 35.548 32.174 41.981
C 34.107 33.639 42.448
H 32.994 33.739 42.542
H 34.62  34.031 43.384
H 34.48  34.234 41.655
N 29.794 29.822 40.67 
C 30.338 30.259 41.83 
C 29.392 30.03  42.947
C 28.204 29.585 42.31 
C 28.508 29.554 40.927
C 29.622 30.449 44.344
H 29.741 31.49  44.345
H 28.826 30.193 45.025
H 30.47  29.875 44.629
C 26.874 29.182 42.512
O 26.187 29.006 43.506
C 26.28  28.977 41.063
H 25.599 29.807 40.907
C 25.503 27.663 41.009
O 26.133 26.588 40.989
O 24.137 27.786 40.699
C 23.292 26.627 40.332
H 23.783 26.305 39.439
H 23.217 25.8   41.029
H 22.309 27.005 40.136
C 24.076 28.522 33.504
H 25.056 28.964 33.153
H 23.263 29.169 33.26 
C 23.934 27.112 32.954
H 24.737 26.456 33.361
C 23.045 26.588 32.12 
C 21.876 27.329 31.494
H 22.228 28.198 30.909
H 21.215 26.621 30.946
H 21.395 27.853 32.314
C 23.224 25.143 31.64 
H 24.248 24.867 31.82 
H 23.11  25.092 30.582
C 22.257 24.238 32.468
H 21.579 24.791 33.082
H 22.782 23.597 33.2  
C 21.551 23.192 31.486
H 22.287 22.811 30.743
H 20.822 23.68  30.88 
C 20.906 21.898 32.1  
H 21.723 21.367 32.582
C 20.458 20.881 30.949
H 20.022 19.92  31.279
H 19.578 21.338 30.468
H 21.317 20.606 30.344
C 19.721 22.131 33.111
H 20.129 22.746 33.867
H 19.419 21.19  33.541
C 18.428 22.933 32.75 
H 18.187 22.955 31.668
H 18.657 24.017 32.882
C 17.181 22.583 33.549
H 17.502 22.033 34.391
H 16.508 21.997 32.917
C 16.517 23.83  34.147
H 16.415 24.477 33.32 
C 17.358 24.555 35.255
H 17.217 24.281 36.329
H 18.404 24.624 34.975
H 17.04  25.584 35.279
C 15.042 23.651 34.635
H 15.07  23.044 35.562
H 14.521 23.167 33.824
C 14.241 24.922 34.985
H 14.82  25.723 34.437
H 14.239 25.029 36.086
C 12.741 24.956 34.569
H 12.177 25.5   35.387
H 12.157 24.007 34.313
C 12.335 25.967 33.478
H 12.619 26.987 33.843
C 10.834 25.974 33.286
H 10.383 26.356 34.182
H 10.563 26.682 32.51 
H 10.479 24.962 33.087
C 12.948 25.737 32.097
H 14.074 25.789 32.15 
H 12.637 24.745 31.782
H 12.71  26.56  31.385
