137

Mg 29.855 28.472 33.33 
C 27.546 27.102 31.131
C 32.175 28.655 30.722
H 32.947 28.885 29.924
C 32.023 29.701 35.481
H 32.583 30.284 36.199
C 27.352 28.454 35.8  
H 26.655 28.414 36.616
N 29.825 27.815 31.185
C 28.792 27.276 30.544
C 29.166 27.11  28.993
H 29.08  26.058 28.918
C 30.683 27.495 28.987
H 30.738 28.358 28.389
C 30.967 28.002 30.387
C 31.614 26.434 28.318
H 31.164 25.496 28.337
H 31.807 26.701 27.243
H 32.531 26.39  28.887
C 28.234 27.982 28.118
H 28.281 29.041 28.385
H 27.244 27.645 28.38 
C 28.398 27.801 26.591
H 28.651 28.783 26.171
H 29.192 27.128 26.383
C 27.239 27.225 25.797
O 27.199 26.113 25.352
O 26.198 28.055 25.85 
N 31.812 29.018 33.156
C 32.559 29.108 31.985
C 33.838 29.736 32.283
C 33.72  30.054 33.66 
C 32.515 29.444 34.174
C 34.925 30.146 31.31 
H 35.084 29.215 30.75 
H 34.553 30.923 30.647
H 35.795 30.388 31.905
C 34.675 30.967 34.464
H 34.843 30.635 35.47 
C 35.263 32.039 33.922
H 35.026 32.382 32.852
H 35.834 32.81  34.564
N 29.772 28.877 35.281
C 30.794 29.341 36.035
C 30.493 29.42  37.451
C 29.078 29.073 37.527
C 28.661 28.813 36.112
C 31.38  29.851 38.657
H 30.961 29.585 39.611
H 32.302 29.291 38.719
H 31.546 30.917 38.691
C 28.169 29.057 38.765
H 27.577 28.2   38.75 
H 28.831 29.048 39.593
C 27.188 30.247 38.85 
H 27.759 31.163 39.022
H 26.425 30.362 38.069
H 26.634 29.951 39.71 
N 27.833 27.892 33.54 
C 26.887 28.02  34.555
C 25.591 27.547 34.113
C 25.783 27.137 32.804
C 27.118 27.469 32.45 
C 24.374 27.273 34.984
H 23.8   28.13  35.044
H 23.737 26.451 34.613
H 24.719 27.015 35.981
C 25.121 26.56  31.701
O 23.977 26.198 31.572
C 26.3   26.469 30.591
H 25.839 26.972 29.756
C 26.42  25.023 30.272
O 26.574 24.123 31.128
O 26.358 24.847 28.927
C 26.592 23.494 28.536
H 25.807 22.843 28.82 
H 26.719 23.366 27.473
H 27.513 23.204 28.981
C 24.932 27.487 25.313
H 24.962 26.747 24.576
H 24.486 28.37  24.833
C 24.201 27.077 26.539
H 23.96  27.898 27.278
C 23.701 25.851 26.772
C 24.047 24.663 25.871
H 23.926 23.716 26.269
H 23.55  24.617 24.912
H 25.062 24.718 25.597
C 22.858 25.541 28.01 
H 22.868 26.483 28.589
H 23.29  24.657 28.434
C 21.349 25.424 27.768
H 21.189 25.106 26.713
H 20.91  26.411 27.82 
C 20.613 24.546 28.84 
H 19.643 25.026 29.061
H 21.017 24.557 29.82 
C 20.123 23.154 28.443
H 19.442 23.18  27.628
C 19.27  22.557 29.543
H 19.666 22.958 30.486
H 18.262 22.92  29.425
H 19.317 21.527 29.421
C 21.3   22.147 28.043
H 21.805 22.383 27.116
H 20.766 21.248 27.86 
C 22.416 21.806 29.083
H 22.428 22.252 30.034
H 23.387 22.101 28.643
C 22.501 20.289 29.336
H 23.39  19.87  28.915
H 21.651 19.7   28.842
C 22.635 19.79  30.76 
H 23.493 20.377 31.231
C 23.09  18.302 30.731
H 23.215 18.107 31.786
H 22.3   17.768 30.227
H 24.101 18.155 30.163
C 21.353 19.958 31.681
H 20.683 19.229 31.333
H 20.894 20.94  31.536
C 21.642 19.859 33.227
H 21.4   20.843 33.649
H 22.715 19.636 33.342
C 20.9   18.721 33.83 
H 21.558 18.152 34.572
H 20.79  17.943 33.099
C 19.634 19.001 34.68 
H 19.834 19.459 35.61 
C 19.005 17.604 35.108
H 18.685 17.104 34.213
H 19.65  16.982 35.732
H 18.046 17.834 35.683
C 18.555 19.685 33.788
H 18.884 20.733 33.685
H 18.379 19.183 32.86 
H 17.627 19.578 34.326
