137

Mg 33.32  30.668 36.523
C 31.603 28.709 34.261
C 35.633 31.264 34.122
H 36.435 31.358 33.35 
C 35.37  31.911 38.837
H 36.038 32.456 39.474
C 30.958 29.847 38.918
H 30.099 29.638 39.632
N 33.548 30.076 34.35 
C 32.642 29.357 33.646
C 32.941 29.503 32.152
H 32.95  28.422 31.855
C 34.466 30.003 32.154
H 34.527 30.925 31.583
C 34.585 30.567 33.574
C 35.596 29.019 31.632
H 35.739 28.217 32.384
H 35.233 28.618 30.685
H 36.494 29.608 31.414
C 31.909 30.294 31.335
H 31.961 31.258 31.769
H 30.984 29.846 31.753
C 32.03  30.325 29.778
H 32.089 31.378 29.466
H 33.027 29.822 29.637
C 31.072 29.496 28.85 
O 30.748 29.791 27.726
O 30.518 28.492 29.548
N 35.149 31.483 36.521
C 35.904 31.749 35.394
C 37.121 32.417 35.691
C 37.077 32.647 37.09 
C 35.803 32.019 37.585
C 38.073 33.149 34.708
H 38.928 32.627 34.412
H 37.381 33.36  33.865
H 38.291 34.07  35.225
C 37.898 33.553 37.952
H 37.336 34.015 38.787
C 39.243 33.752 37.9  
H 39.841 33.347 37.062
H 39.721 34.31  38.718
N 33.177 30.805 38.602
C 34.118 31.455 39.346
C 33.586 31.664 40.723
C 32.249 31.149 40.703
C 32.095 30.602 39.39 
C 34.324 32.366 41.842
H 33.696 33.268 42.214
H 34.641 31.621 42.591
H 35.237 32.858 41.55 
C 31.253 31.084 41.867
H 30.897 30.058 41.964
H 31.68 31.39 42.88
C 30.081 32.053 41.686
H 29.322 31.981 42.457
H 30.52  33.102 41.86 
H 29.742 32.178 40.694
N 31.659 29.552 36.64 
C 30.77  29.273 37.65 
C 29.665 28.475 37.241
C 30.005 28.22  35.858
C 31.185 28.892 35.622
C 28.478 27.948 38.044
H 28.819 27.388 38.896
H 27.8   28.712 38.368
H 28.017 27.153 37.449
C 29.526 27.6   34.613
O 28.519 27.003 34.262
C 30.562 27.806 33.603
H 30.225 28.224 32.702
C 31.156 26.449 33.346
O 32.133 25.998 33.968
O 30.432 25.781 32.374
C 30.997 24.438 32.27 
H 30.671 23.766 33.028
H 30.414 24.071 31.428
H 32.144 24.427 32.097
C 29.365 27.906 28.82 
H 29.738 27.347 28.04 
H 28.789 28.862 28.536
C 28.655 26.831 29.634
H 28.603 27.083 30.705
C 28.092 25.653 29.256
C 28.01  25.219 27.847
H 27.518 26.022 27.314
H 29.078 25.152 27.524
H 27.487 24.288 27.757
C 27.434 24.733 30.25 
H 27.65  25.104 31.28 
H 27.939 23.76  30.16 
C 25.869 24.621 30.024
H 25.743 23.612 29.719
H 25.632 25.433 29.322
C 25.028 24.838 31.32 
H 24.564 25.813 31.217
H 25.829 24.958 32.026
C 23.943 23.659 31.536
H 24.387 22.707 31.709
C 23.015 23.463 30.321
H 23.563 23.319 29.423
H 22.348 22.653 30.552
H 22.492 24.366 29.976
C 23.112 23.739 32.823
H 23.692 23.789 33.737
H 22.428 22.907 32.97 
C 22.13  24.985 32.951
H 21.188 24.476 33.093
H 22.114 25.573 31.991
C 22.551 25.951 34.101
H 22.707 26.971 33.717
H 23.527 25.585 34.595
C 21.637 26.165 35.358
H 20.601 26.449 34.981
C 22.11  27.367 36.152
H 22.166 28.244 35.506
H 21.272 27.644 36.859
H 23.095 27.103 36.694
C 21.302 24.93  36.367
H 22.129 24.744 37.035
H 21.187 23.917 35.857
C 20.058 24.97  37.241
H 19.368 24.478 36.668
H 19.7   25.993 37.461
C 20.343 24.284 38.638
H 20.508 24.996 39.431
H 21.199 23.656 38.44 
C 19.269 23.297 39.113
H 19.049 22.583 38.318
C 17.967 23.997 39.57 
H 17.199 23.308 39.861
H 18.169 24.59  40.439
H 17.662 24.714 38.845
C 19.827 22.457 40.283
H 19.002 21.983 40.753
H 20.555 21.753 39.957
H 20.325 22.974 41.1  
