137

Mg 20.73  30.483 31.357
C 21.401 27.519 32.697
C 17.473 30.161 32.591
H 16.483 29.855 32.803
C 19.843 33.555 29.995
H 19.694 34.616 29.8  
C 23.735 30.556 29.828
H 24.63  30.524 29.187
N 19.665 29.056 32.646
C 20.147 27.929 33.192
C 19.11  27.18  34.064
H 19.028 26.219 33.707
C 17.818 27.837 33.638
H 17.339 28.149 34.547
C 18.338 29.072 32.857
C 16.78  27.05  32.749
H 17.097 27.012 31.716
H 16.914 26.07  33.104
H 15.727 27.384 32.932
C 19.526 27.34  35.52 
H 19.501 28.38  35.78 
H 20.503 27.067 35.693
C 18.595 26.639 36.49 
H 17.736 26.278 35.996
H 19.12  25.748 36.853
C 18.198 27.466 37.698
O 18.846 27.833 38.608
O 16.97  27.969 37.363
N 19.024 31.683 31.363
C 17.778 31.36  31.874
C 16.823 32.435 31.619
C 17.544 33.419 30.917
C 18.868 32.919 30.715
C 15.445 32.568 32.221
H 15.441 33.109 33.132
H 14.86  33.08  31.434
H 15.076 31.589 32.408
C 17.047 34.733 30.416
H 17.216 34.886 29.378
C 16.207 35.572 31.076
H 15.71  35.24  32.056
H 15.751 36.422 30.604
N 21.675 31.842 30.167
C 21.156 33.082 29.695
C 22.221 33.73  28.913
C 23.329 32.863 28.89 
C 22.938 31.667 29.62 
C 22.05  35.06  28.224
H 22.844 35.41  27.585
H 21.283 34.901 27.446
H 21.799 35.723 29.076
C 24.667 33.166 28.237
H 25.016 32.39  27.512
H 24.55  34.109 27.698
C 25.812 33.436 29.303
H 26.005 32.694 30.082
H 26.728 33.607 28.721
H 25.646 34.432 29.815
N 22.34  29.343 31.306
C 23.517 29.44  30.679
C 24.324 28.23  30.855
C 23.52  27.436 31.671
C 22.34  28.126 31.922
C 25.635 27.919 30.197
H 26.506 28.383 30.787
H 25.636 26.835 30.224
H 25.525 28.172 29.158
C 23.364 26.144 32.331
O 24.104 25.197 32.521
C 22.023 26.203 32.979
H 22.25  26.192 34.058
C 21.29 25.04 32.43
O 21.158 24.772 31.238
O 20.695 24.288 33.466
C 20.069 23.064 32.947
H 19.08  23.206 32.402
H 20.732 22.33  32.413
H 19.859 22.608 33.94 
C 16.419 28.942 38.253
H 17.064 29.792 38.194
H 16.385 28.623 39.292
C 15.065 29.083 37.49 
H 14.214 28.456 37.647
C 14.662 30.12  36.751
C 15.487 31.426 36.614
H 16.38  31.24  35.987
H 14.84  32.129 36.146
H 15.731 31.704 37.6  
C 13.259 30.181 36.039
H 12.713 29.215 36.088
H 13.482 30.108 34.997
C 12.279 31.375 36.436
H 12.637 31.805 37.394
H 11.22  31.132 36.505
C 12.256 32.544 35.375
H 11.584 32.393 34.594
H 13.218 32.519 34.874
C 11.923 34.01  35.894
H 12.279 34.013 36.958
C 10.372 34.134 35.769
H 10.089 34.751 34.994
H  9.924 33.145 35.713
H 10.062 34.616 36.726
C 12.719 35.09  35.115
H 12.142 35.139 34.126
H 13.762 34.779 34.989
C 12.787 36.417 35.738
H 12.523 36.353 36.761
H 11.961 36.969 35.356
C 14.11  37.214 35.744
H 14.902 36.484 35.467
H 14.382 37.642 36.72 
C 14.161 38.421 34.795
H 13.166 38.868 34.673
C 14.625 38.008 33.352
H 15.695 37.735 33.358
H 13.971 37.18  33.046
H 14.646 38.873 32.622
C 15.133 39.525 35.221
H 15.124 40.284 34.409
H 16.165 39.151 35.16 
C 14.877 40.221 36.559
H 15.875 40.393 37.068
H 14.212 39.679 37.305
C 14.367 41.64  36.36 
H 13.301 41.63  36.631
H 14.303 41.986 35.31 
C 15.139 42.766 37.042
H 15.28  42.501 38.067
C 14.244 44.    37.053
H 13.246 43.849 37.466
H 14.839 44.868 37.489
H 14.133 44.42  36.042
C 16.443 43.071 36.178
H 16.951 43.997 36.486
H 17.134 42.215 36.15 
H 16.031 43.273 35.171
