137

Mg 25.281 29.622 38.79 
C 23.646 26.887 39.861
C 22.276 30.852 37.586
H 21.339 31.285 37.298
C 26.671 32.563 38.19 
H 27.195 33.472 37.918
C 28.194 28.535 40.226
H 28.982 28.091 40.764
N 23.267 28.875 38.58 
C 22.771 27.716 39.15 
C 21.157 27.604 38.991
H 20.915 26.668 38.516
C 20.907 28.779 38.01 
H 20.128 29.512 38.389
C 22.219 29.514 38.012
C 20.41  28.368 36.62 
H 20.473 29.308 36.014
H 20.893 27.54  36.109
H 19.405 28.063 36.779
C 20.393 27.579 40.315
H 20.617 28.51  40.902
H 20.698 26.725 40.957
C 18.871 27.347 40.124
H 18.409 27.271 39.173
H 18.723 26.489 40.766
C 17.942 28.258 40.882
O 17.383 27.982 41.952
O 17.699 29.448 40.191
N 24.557 31.342 38.027
C 23.356 31.641 37.524
C 23.343 33.001 36.979
C 24.67  33.51  37.118
C 25.344 32.448 37.831
C 22.139 33.738 36.508
H 21.397 33.036 35.986
H 21.623 34.275 37.332
H 22.366 34.535 35.747
C 25.31  34.792 36.757
H 26.21  35.061 37.377
C 24.926 35.614 35.74 
H 24.091 35.359 35.038
H 25.426 36.615 35.585
N 27.115 30.469 39.196
C 27.553 31.685 38.819
C 28.974 31.867 39.052
C 29.344 30.71  39.716
C 28.176 29.843 39.71 
C 29.721 33.134 38.641
H 30.753 33.105 38.956
H 29.736 33.345 37.577
H 29.172 33.9   39.203
C 30.753 30.249 40.157
H 30.96  29.251 39.787
H 31.51  30.972 39.861
C 30.927 30.11  41.641
H 30.384 29.16  41.963
H 31.989 29.969 41.741
H 30.511 31.041 42.065
N 25.878 27.963 39.841
C 27.11  27.648 40.387
C 27.001 26.361 40.968
C 25.685 26.048 40.851
C 25.008 27.058 40.158
C 28.122 25.565 41.677
H 28.929 26.156 41.943
H 27.758 24.897 42.483
H 28.515 24.902 40.902
C 24.746 25.015 41.052
O 24.913 23.887 41.51 
C 23.36  25.465 40.516
H 22.621 25.583 41.3  
C 23.003 24.599 39.44 
O 23.572 24.356 38.372
O 21.755 24.151 39.721
C 20.962 23.498 38.679
H 21.381 22.429 38.696
H 19.91  23.368 38.95 
H 21.091 23.91  37.681
C 16.925 30.341 41.039
H 17.378 30.568 41.971
H 15.884 30.057 41.148
C 16.781 31.606 40.156
H 16.512 31.399 39.062
C 17.012 32.935 40.418
C 17.061 33.52  41.841
H 17.129 34.6   41.868
H 16.14  33.274 42.255
H 17.766 33.023 42.504
C 16.978 33.948 39.211
H 17.473 33.371 38.456
H 17.733 34.675 39.449
C 15.594 34.668 39.056
H 15.507 35.474 39.752
H 14.807 34.058 39.459
C 15.365 35.171 37.625
H 14.348 35.025 37.312
H 16.076 34.562 36.997
C 15.718 36.665 37.299
H 15.157 37.194 38.017
C 15.136 37.289 35.988
H 14.133 37.337 36.16 
H 15.499 38.286 35.721
H 15.257 36.625 35.174
C 17.193 37.145 37.522
H 17.384 36.687 38.517
H 17.265 38.223 37.569
C 18.2   36.616 36.356
H 17.565 36.188 35.563
H 18.846 35.805 36.627
C 19.012 37.721 35.696
H 19.655 38.085 36.517
H 18.442 38.56  35.449
C 19.956 37.345 34.635
H 20.405 36.34  34.859
C 21.135 38.357 34.418
H 21.719 38.091 33.57 
H 20.669 39.358 34.269
H 21.802 38.273 35.272
C 19.088 37.092 33.328
H 18.822 38.061 32.878
H 18.171 36.554 33.361
C 19.978 36.389 32.203
H 21.053 36.53  32.358
H 19.614 36.852 31.209
C 19.742 34.865 32.28 
H 19.105 34.536 33.181
H 20.781 34.425 32.312
C 19.081 34.262 31.004
H 19.664 34.553 30.126
C 17.651 34.82  30.791
H 17.644 35.816 30.43 
H 17.062 34.26  29.988
H 16.928 34.801 31.695
C 19.08  32.733 30.968
H 18.613 32.515 30.033
H 20.09  32.292 30.798
H 18.528 32.346 31.852
