137

Mg 29.151 30.531 33.25 
C 28.562 27.081 32.583
C 29.338 30.974 29.839
H 29.459 31.15  28.787
C 29.872 33.785 33.69 
H 29.936 34.803 34.036
C 29.517 29.718 36.553
H 29.627 29.508 37.646
N 28.891 29.189 31.515
C 28.572 27.85  31.403
C 28.28  27.45  30.005
H 28.617 26.382 29.913
C 28.993 28.469 29.197
H 28.575 28.919 28.246
C 29.127 29.653 30.233
C 30.392 28.038 28.685
H 30.91  27.774 29.621
H 30.528 27.183 28.007
H 31.038 28.868 28.323
C 26.691 27.451 29.907
H 26.372 28.424 30.238
H 26.331 26.76  30.675
C 26.052 27.084 28.627
H 25.388 27.937 28.335
H 26.801 27.022 27.856
C 25.155 25.766 28.643
O 25.608 24.612 28.7  
O 23.831 26.045 28.819
N 29.647 32.048 31.982
C 29.565 32.076 30.571
C 29.785 33.442 30.086
C 29.926 34.274 31.221
C 29.848 33.357 32.355
C 29.803 33.772 28.658
H 29.833 34.845 28.638
H 30.752 33.465 28.163
H 28.922 33.344 28.132
C 30.105 35.714 31.136
H 30.631 36.222 30.284
C 29.752 36.612 32.078
H 29.168 36.296 32.935
H 29.953 37.689 31.94 
N 29.667 31.576 34.8  
C 29.892 32.951 34.801
C 29.986 33.403 36.179
C 29.857 32.263 36.969
C 29.81  31.089 36.095
C 30.166 34.81  36.518
H 30.968 35.308 36.01 
H 29.238 35.391 36.352
H 30.399 34.884 37.6  
C 29.965 32.211 38.494
H 30.682 31.434 38.794
H 30.319 33.12  38.865
C 28.665 31.867 39.245
H 27.969 32.641 38.88 
H 28.344 30.878 38.915
H 28.753 31.925 40.313
N 29.182 28.793 34.364
C 29.313 28.639 35.767
C 29.171 27.178 36.149
C 28.852 26.546 34.863
C 28.846 27.548 33.858
C 29.323 26.527 37.488
H 28.926 25.501 37.57 
H 30.275 26.608 37.843
H 28.649 27.011 38.228
C 28.606 25.276 34.287
O 28.583 24.141 34.754
C 28.28  25.563 32.771
H 27.22  25.364 32.703
C 29.071 24.624 32.012
O 30.254 24.74  31.698
O 28.232 23.641 31.572
C 28.706 22.605 30.692
H 29.41  22.993 29.928
H 29.31  21.938 31.324
H 27.786 22.202 30.319
C 22.952 24.872 29.013
H 22.862 24.586 30.093
H 23.27  23.982 28.448
C 21.52  25.257 28.742
H 21.184 26.16  29.344
C 20.637 24.527 28.07 
C 20.836 23.184 27.304
H 21.839 23.283 26.86 
H 20.794 22.337 27.966
H 20.039 23.237 26.556
C 19.188 24.824 28.499
H 19.115 25.669 29.163
H 18.89  23.942 29.093
C 18.184 25.04  27.369
H 17.837 24.1   26.942
H 18.824 25.559 26.623
C 17.064 25.917 27.741
H 17.299 26.884 27.152
H 17.11  26.111 28.761
C 15.643 25.424 27.355
H 15.545 25.198 26.291
C 14.592 26.457 27.48 
H 14.479 26.889 28.474
H 14.862 27.241 26.767
H 13.685 26.046 27.109
C 15.154 24.114 28.049
H 15.867 23.265 27.881
H 14.209 23.828 27.525
C 14.86  24.141 29.632
H 13.884 23.681 29.875
H 14.94  25.129 30.009
C 15.911 23.181 30.349
H 16.926 23.357 29.965
H 15.639 22.135 30.028
C 15.843 23.255 31.83 
H 15.577 24.259 32.063
C 17.319 23.1   32.463
H 17.566 22.105 32.466
H 17.982 23.695 31.818
H 17.395 23.474 33.493
C 14.823 22.214 32.295
H 15.316 21.199 32.14 
H 13.918 22.292 31.684
C 14.33  22.407 33.765
H 13.474 23.055 33.98 
H 15.209 22.917 34.232
C 13.984 20.992 34.372
H 14.956 20.433 34.412
H 13.349 20.43  33.608
C 13.361 21.078 35.79 
H 12.639 21.898 35.745
C 14.474 21.398 36.805
H 14.068 21.311 37.825
H 15.245 20.606 36.687
H 14.909 22.358 36.503
C 12.556 19.837 36.21 
H 13.266 18.951 36.26 
H 12.176 20.018 37.246
H 11.667 19.713 35.541
