137

Mg 20.289 25.648 30.714
C 23.25  25.084 32.314
C 19.443 28.158 32.968
H 19.013 28.77  33.728
C 17.362 26.127 29.097
H 16.357 26.214 28.623
C 21.002 22.899 28.598
H 21.118 21.955 28.119
N 21.27  26.547 32.368
C 22.504 26.159 32.798
C 22.948 27.111 33.934
H 23.371 26.363 34.652
C 21.678 27.959 34.279
H 21.896 29.082 34.194
C 20.684 27.55  33.135
C 21.224 27.758 35.725
H 20.551 28.503 36.053
H 20.684 26.805 35.734
H 22.073 27.731 36.408
C 24.229 28.047 33.702
H 24.019 28.723 32.84 
H 25.052 27.336 33.356
C 24.913 28.68  34.924
H 24.327 28.47  35.826
H 25.849 28.328 35.134
C 25.007 30.206 35.022
O 26.    30.871 34.864
O 23.811 30.769 35.422
N 18.688 26.895 30.987
C 18.501 27.782 32.059
C 17.206 28.369 31.911
C 16.628 27.829 30.756
C 17.6   26.901 30.23 
C 16.747 29.405 32.893
H 17.544 29.947 33.356
H 16.063 30.171 32.486
H 16.085 28.902 33.597
C 15.21  28.084 30.348
H 14.915 28.026 29.315
C 14.142 28.233 31.171
H 14.111 28.297 32.292
H 13.129 28.381 30.748
N 19.33  24.678 29.155
C 18.125 25.071 28.608
C 17.83  24.294 27.445
C 18.866 23.281 27.335
C 19.826 23.673 28.383
C 16.521 24.469 26.606
H 15.626 24.058 27.152
H 16.404 25.514 26.406
H 16.627 23.943 25.608
C 18.98  22.158 26.318
H 19.099 21.193 26.902
H 18.204 22.151 25.57 
C 20.131 22.524 25.426
H 20.225 21.707 24.79 
H 19.971 23.558 24.974
H 21.086 22.603 25.945
N 21.696 24.169 30.56 
C 21.892 23.147 29.634
C 23.116 22.434 29.969
C 23.607 23.093 31.102
C 22.831 24.241 31.325
C 23.83  21.309 29.189
H 23.366 20.383 29.52 
H 23.777 21.492 28.128
H 24.868 21.269 29.351
C 24.751 23.16  31.989
O 25.735 22.459 32.153
C 24.512 24.475 32.804
H 25.416 25.036 32.585
C 24.412 24.093 34.304
O 23.415 23.67  34.892
O 25.657 24.306 34.81 
C 25.867 23.747 36.158
H 25.421 22.817 36.278
H 26.966 23.695 36.386
H 25.422 24.424 36.933
C 23.802 32.237 35.592
H 24.056 32.711 34.644
H 24.379 32.6   36.467
C 22.382 32.525 35.869
H 22.023 31.793 36.54 
C 21.584 33.548 35.553
C 21.99  34.644 34.638
H 21.523 35.549 35.008
H 23.106 34.83  34.711
H 21.701 34.425 33.566
C 20.148 33.611 35.986
H 19.909 32.719 36.546
H 19.565 33.598 35.081
C 19.801 34.77  36.907
H 20.635 35.455 37.065
H 19.634 34.256 37.84 
C 18.623 35.628 36.482
H 18.165 35.409 35.556
H 19.033 36.64  36.382
C 17.541 35.656 37.575
H 17.928 35.876 38.585
C 16.871 34.263 37.773
H 16.67  33.897 36.745
H 17.639 33.551 38.141
H 15.934 34.383 38.293
C 16.46  36.746 37.396
H 15.6   36.614 38.052
H 15.915 36.638 36.488
C 16.937 38.224 37.519
H 17.901 38.203 37.961
H 16.254 38.807 38.134
C 17.116 38.917 36.196
H 16.26  39.619 36.147
H 17.019 38.185 35.377
C 18.456 39.8   35.98 
H 19.239 39.249 36.425
C 18.35  41.118 36.888
H 19.205 41.783 36.718
H 17.381 41.631 36.766
H 18.418 40.829 37.878
C 18.777 40.128 34.406
H 19.497 40.969 34.381
H 17.796 40.557 34.038
C 19.149 38.842 33.622
H 18.435 38.674 32.926
H 19.029 38.064 34.422
C 20.512 38.822 33.034
H 21.17  38.276 33.69 
H 20.804 39.884 32.963
C 20.725 38.271 31.635
H 20.313 38.951 30.888
C 20.012 36.929 31.444
H 20.121 36.74  30.373
H 20.5   36.206 32.11 
H 18.97  36.949 31.655
C 22.257 38.018 31.245
H 22.707 37.118 31.767
H 22.301 37.85  30.208
H 22.74  38.986 31.557
