137

Mg 27.622 27.118 43.526
C 25.496 24.704 42.373
C 28.982 27.428 40.437
H 29.451 27.415 39.489
C 29.37  29.77  44.574
H 29.884 30.578 44.981
C 26.118 26.853 46.691
H 25.682 26.804 47.694
N 27.323 26.212 41.651
C 26.38  25.229 41.444
C 26.333 24.868 39.931
H 26.331 23.787 39.763
C 27.695 25.442 39.37 
H 27.543 25.831 38.361
C 27.968 26.452 40.524
C 28.782 24.299 39.275
H 29.808 24.686 39.049
H 28.89  23.768 40.266
H 28.639 23.453 38.594
C 25.09  25.542 39.169
H 25.212 26.664 39.078
H 24.219 25.265 39.787
C 24.642 25.012 37.817
H 25.532 24.717 37.25 
H 24.076 24.125 38.097
C 23.589 25.809 37.031
O 23.653 27.04  36.829
O 22.505 24.999 36.703
N 28.873 28.474 42.596
C 29.392 28.377 41.347
C 30.443 29.36  41.126
C 30.475 30.086 42.358
C 29.501 29.465 43.223
C 31.161 29.541 39.84 
H 31.432 28.537 39.438
H 30.343 29.972 39.251
H 32.045 30.163 39.968
C 31.417 31.131 42.635
H 32.451 30.845 42.366
C 31.156 32.311 43.206
H 30.173 32.615 43.502
H 31.922 33.06  43.468
N 27.731 28.098 45.349
C 28.553 29.111 45.527
C 28.504 29.56  46.965
C 27.537 28.722 47.592
C 27.084 27.805 46.528
C 29.338 30.683 47.566
H 29.563 31.467 46.943
H 28.643 31.132 48.313
H 30.218 30.303 48.112
C 27.015 28.768 49.05 
H 26.75  27.745 49.447
H 27.863 29.163 49.62 
C 25.802 29.618 49.158
H 25.815 30.424 48.508
H 24.922 29.012 48.867
H 25.717 29.92  50.168
N 26.107 26.006 44.411
C 25.724 25.92  45.709
C 24.704 24.857 45.743
C 24.563 24.317 44.459
C 25.42  25.104 43.715
C 24.067 24.359 46.907
H 23.071 24.762 46.925
H 24.182 23.297 47.007
H 24.597 24.737 47.781
C 23.902 23.282 43.673
O 23.13  22.333 43.929
C 24.46  23.54  42.222
H 23.612 23.832 41.556
C 25.082 22.277 41.727
O 26.002 21.626 42.239
O 24.497 21.994 40.5  
C 25.159 20.942 39.706
H 24.361 20.538 39.076
H 25.894 21.425 39.124
H 25.636 20.075 40.212
C 21.309 25.696 36.136
H 21.652 26.07  35.114
H 21.1   26.542 36.751
C 20.001 24.893 36.159
H 19.608 24.645 37.118
C 19.277 24.67  35.036
C 19.692 24.745 33.603
H 19.079 25.42  33.035
H 20.729 25.033 33.599
H 19.621 23.768 33.228
C 17.949 24.044 35.266
H 17.936 23.671 36.255
H 17.715 23.076 34.847
C 16.679 24.933 34.981
H 16.005 24.363 34.385
H 16.987 25.797 34.468
C 16.02  25.378 36.238
H 16.646 25.278 37.206
H 15.254 24.629 36.341
C 15.459 26.814 36.251
H 16.263 27.4   36.01 
C 15.077 27.25  37.73 
H 14.607 28.227 37.568
H 14.412 26.531 38.211
H 15.946 27.409 38.312
C 14.251 26.999 35.228
H 14.51  26.73  34.197
H 13.974 28.054 35.278
C 12.921 26.267 35.704
H 12.098 27.014 35.825
H 13.089 25.759 36.671
C 12.375 25.108 34.831
H 12.651 24.152 35.304
H 12.896 25.069 33.844
C 10.814 24.926 34.798
H 10.445 25.343 35.684
C 10.221 23.48  34.679
H 10.737 23.012 33.834
H 10.476 22.827 35.525
H  9.115 23.45  34.641
C 10.25  25.791 33.699
H 10.853 25.515 32.856
H 10.495 26.857 33.906
C  8.807 25.815 33.177
H  8.596 26.86  32.961
H  8.042 25.332 33.867
C  8.551 25.141 31.827
H  8.573 24.102 32.1  
H  9.587 25.121 31.314
C  7.515 25.524 30.844
H  7.643 26.528 30.406
C  6.177 25.461 31.569
H  6.088 26.312 32.191
H  5.426 25.554 30.804
H  5.937 24.529 32.011
C  7.511 24.572 29.626
H  6.765 24.835 28.941
H  8.484 24.905 29.208
H  7.461 23.51  29.884
