137

Mg 19.81  25.719 31.38 
C 21.447 23.449 33.395
C 17.352 26.011 33.634
H 16.609 26.058 34.43 
C 18.406 28.056 29.474
H 17.862 28.859 28.957
C 22.216 25.224 28.911
H 22.89  25.017 28.067
N 19.445 24.771 33.221
C 20.244 23.926 33.964
C 19.524 23.539 35.226
H 19.394 22.517 35.253
C 18.143 24.264 35.134
H 17.99  24.962 35.881
C 18.338 25.059 33.871
C 16.924 23.341 35.287
H 16.987 22.499 34.552
H 16.923 22.812 36.183
H 15.987 23.861 35.088
C 20.3   23.922 36.494
H 20.584 24.973 36.471
H 21.24  23.367 36.588
C 19.56  23.582 37.842
H 18.463 23.511 37.743
H 19.937 22.638 38.205
C 19.779 24.484 38.983
O 20.677 24.404 39.797
O 18.848 25.432 38.849
N 18.2   26.932 31.566
C 17.281 26.888 32.563
C 16.335 28.019 32.433
C 16.712 28.623 31.263
C 17.79  27.869 30.724
C 15.266 28.282 33.491
H 15.576 28.081 34.56 
H 15.126 29.36  33.426
H 14.275 27.901 33.158
C 16.053 29.736 30.532
H 16.717 30.309 29.874
C 14.711 29.949 30.451
H 14.051 29.34  31.087
H 14.292 30.682 29.77 
N 20.208 26.529 29.559
C 19.564 27.498 28.928
C 20.077 27.769 27.582
C 21.171 26.941 27.46 
C 21.239 26.201 28.649
C 19.479 28.669 26.532
H 18.644 28.151 26.188
H 19.206 29.621 26.925
H 20.265 28.83  25.84 
C 22.168 26.956 26.295
H 22.507 25.905 26.05 
H 21.711 27.33  25.397
C 23.43  27.726 26.639
H 23.303 28.745 27.068
H 23.799 27.137 27.479
H 24.069 27.729 25.71 
N 21.393 24.562 31.06 
C 22.297 24.424 30.083
C 23.299 23.409 30.419
C 23.032 23.046 31.681
C 21.933 23.848 32.095
C 24.418 22.834 29.534
H 25.281 22.755 30.216
H 24.17  21.826 29.187
H 24.601 23.44  28.685
C 23.448 22.113 32.761
O 24.349 21.27  32.848
C 22.508 22.39  33.939
H 22.936 22.775 34.858
C 21.952 20.996 34.093
O 21.396 20.384 33.225
O 22.054 20.616 35.404
C 21.339 19.404 35.839
H 20.989 19.516 36.873
H 20.516 19.217 35.129
H 22.072 18.573 35.805
C 19.18  26.684 39.477
H 20.057 27.131 38.979
H 19.436 26.459 40.511
C 17.935 27.467 39.515
H 17.403 27.722 40.485
C 17.34  28.139 38.501
C 17.835 28.17  36.938
H 17.621 27.222 36.497
H 17.314 28.972 36.338
H 18.939 28.232 36.889
C 16.076 28.926 38.775
H 15.653 28.763 39.699
H 15.333 28.641 38.048
C 16.317 30.425 38.705
H 17.277 30.524 38.188
H 16.496 30.852 39.643
C 15.123 31.123 37.962
H 14.281 30.465 37.947
H 15.436 31.214 36.952
C 14.762 32.524 38.57 
H 15.66  33.139 38.591
C 14.09  32.503 39.999
H 14.019 33.501 40.556
H 13.103 32.102 39.85 
H 14.715 31.739 40.552
C 13.886 33.251 37.548
H 13.647 34.224 37.968
H 12.952 32.632 37.388
C 14.561 33.474 36.131
H 14.355 32.649 35.46 
H 15.63  33.61  36.299
C 14.013 34.678 35.412
H 13.229 35.093 36.   
H 13.551 34.324 34.506
C 15.007 35.78  34.991
H 15.868 35.293 34.656
C 15.343 36.689 36.208
H 16.172 37.302 35.817
H 14.561 37.329 36.6  
H 15.735 36.172 37.111
C 14.523 36.655 33.862
H 15.257 37.511 33.716
H 13.681 37.237 34.061
C 14.276 35.89  32.53 
H 13.29  35.432 32.674
H 14.9   35.069 32.255
C 14.362 36.775 31.252
H 15.412 37.007 31.113
H 13.919 37.79  31.324
C 14.009 36.06  29.871
H 14.551 35.155 29.765
C 14.551 36.819 28.594
H 14.067 36.408 27.758
H 14.375 37.882 28.653
H 15.613 36.749 28.379
C 12.474 35.843 29.72 
H 12.298 35.545 28.676
H 12.09  35.034 30.364
H 11.995 36.729 30.04 
