137

Mg 35.447 31.944 35.189
C 32.105 31.442 35.055
C 35.902 28.847 33.556
H 36.125 28.144 32.772
C 38.707 32.67  34.918
H 39.721 32.917 34.773
C 35.011 34.975 36.795
H 34.897 35.934 37.262
N 34.182 30.486 34.267
C 32.85  30.516 34.314
C 32.182 29.447 33.417
H 31.404 29.037 34.063
C 33.351 28.528 33.03 
H 33.55  28.653 31.955
C 34.57  29.316 33.646
C 33.169 27.032 33.35 
H 32.418 26.569 32.656
H 34.092 26.507 33.137
H 32.762 26.845 34.318
C 31.388 30.05  32.2  
H 32.139 30.68  31.656
H 30.613 30.782 32.513
C 30.907 29.029 31.094
H 31.331 29.168 30.086
H 31.055 27.969 31.359
C 29.452 29.243 30.807
O 29.019 29.462 29.696
O 28.778 29.379 31.962
N 37.031 30.798 34.503
C 37.028 29.571 33.87 
C 38.459 29.331 33.444
C 39.189 30.441 33.68 
C 38.285 31.379 34.435
C 38.959 28.054 32.756
H 38.49  27.158 33.175
H 38.64  28.089 31.761
H 40.037 27.91  32.857
C 40.598 30.798 33.381
H 40.772 31.888 33.23 
C 41.653 29.975 33.284
H 41.691 28.904 33.516
H 42.672 30.321 32.939
N 36.66  33.541 35.801
C 38.005 33.594 35.632
C 38.504 34.943 36.038
C 37.418 35.56  36.641
C 36.276 34.732 36.369
C 39.982 35.383 35.924
H 40.228 36.189 36.607
H 40.603 34.529 36.206
H 40.152 35.537 34.836
C 37.42  36.909 37.231
H 36.827 36.923 38.12 
H 38.467 37.168 37.517
C 36.667 37.974 36.392
H 35.577 37.952 36.599
H 37.113 38.883 36.776
H 36.925 37.764 35.382
N 33.91  33.052 35.782
C 33.838 34.16  36.523
C 32.47  34.382 36.896
C 31.719 33.347 36.317
C 32.645 32.541 35.685
C 31.909 35.552 37.745
H 31.787 35.347 38.835
H 32.518 36.303 37.449
H 30.904 35.811 37.339
C 30.379 32.88  36.155
O 29.359 33.44  36.564
C 30.532 31.583 35.313
H 29.741 31.61  34.529
C 30.097 30.422 36.208
O 30.542 30.218 37.287
O 29.106 29.61  35.638
C 28.653 28.595 36.63 
H 28.13  29.05  37.438
H 27.96  27.96  36.047
H 29.542 28.02  36.998
C 27.293 29.429 31.715
H 26.91  28.446 31.349
H 26.973 30.224 31.007
C 26.82  29.964 33.065
H 27.227 30.848 33.523
C 25.823 29.519 33.884
C 24.906 28.387 33.539
H 24.847 28.122 32.487
H 25.24  27.572 34.156
H 23.917 28.553 33.802
C 25.437 30.288 35.098
H 26.311 30.769 35.592
H 25.103 29.642 35.91 
C 24.512 31.404 34.725
H 24.466 31.462 33.644
H 24.866 32.383 35.051
C 23.076 31.132 35.27 
H 22.877 31.899 36.09 
H 23.064 30.157 35.695
C 21.934 31.171 34.12 
H 22.168 30.327 33.455
C 21.878 32.574 33.416
H 21.241 33.349 33.859
H 22.832 33.056 33.211
H 21.451 32.358 32.462
C 20.529 30.902 34.761
H 19.79  31.193 34.034
H 20.448 31.713 35.498
C 20.332 29.565 35.429
H 20.008 29.757 36.477
H 21.245 29.066 35.473
C 19.304 28.672 34.706
H 19.763 27.76  34.353
H 19.028 29.154 33.807
C 17.939 28.539 35.409
H 17.494 29.503 35.809
C 18.092 27.674 36.636
H 18.549 26.779 36.328
H 18.702 28.197 37.346
H 17.207 27.505 37.246
C 17.013 27.854 34.313
H 16.179 27.497 34.85 
H 17.499 26.977 33.841
C 16.309 28.748 33.226
H 16.436 29.763 33.444
H 15.213 28.564 33.258
C 16.78  28.548 31.797
H 17.391 27.735 31.648
H 17.357 29.434 31.511
C 15.788 28.228 30.679
H 15.012 29.008 30.762
C 15.263 26.824 30.822
H 14.585 26.415 30.075
H 16.031 26.015 30.855
H 14.717 26.88  31.753
C 16.41  28.351 29.311
H 15.7   28.011 28.535
H 16.81  29.356 29.223
H 17.322 27.708 29.314
