137

Mg 21.71  27.114 31.774
C 24.811 25.37  31.597
C 22.904 28.932 34.401
H 23.208 29.401 35.336
C 18.815 28.793 31.68 
H 17.818 29.279 31.681
C 20.66  25.097 29.054
H 20.284 24.513 28.242
N 23.585 27.156 32.852
C 24.684 26.306 32.69 
C 25.745 26.492 33.763
H 25.956 25.554 34.237
C 25.07  27.576 34.684
H 25.634 28.496 34.824
C 23.778 27.939 33.914
C 24.762 27.002 36.099
H 25.671 26.702 36.537
H 24.249 27.725 36.74 
H 24.094 26.19  35.871
C 27.112 26.928 33.219
H 27.064 27.304 32.221
H 27.656 26.021 33.067
C 27.99  27.776 34.182
H 27.682 27.657 35.245
H 28.973 27.353 34.165
C 28.239 29.251 33.961
O 29.124 29.936 34.414
O 27.168 29.806 33.335
N 21.001 28.642 32.868
C 21.586 29.222 33.961
C 20.674 30.227 34.521
C 19.523 30.219 33.7  
C 19.721 29.155 32.67 
C 21.14  31.145 35.596
H 21.12  32.191 35.243
H 20.641 31.049 36.553
H 22.142 31.103 35.82 
C 18.338 31.193 33.684
H 17.778 31.175 32.758
C 18.091 31.997 34.762
H 18.746 31.994 35.665
H 17.351 32.766 34.728
N 19.945 26.914 30.536
C 18.893 27.807 30.652
C 17.878 27.452 29.563
C 18.476 26.44  28.824
C 19.719 26.059 29.49 
C 16.696 28.344 29.302
H 16.147 27.945 28.471
H 15.994 28.419 30.111
H 17.029 29.329 28.991
C 17.936 25.805 27.541
H 17.436 26.614 26.976
H 18.796 25.39  27.054
C 16.853 24.751 27.67 
H 16.87  24.258 26.658
H 17.092 24.072 28.501
H 15.946 25.232 27.913
N 22.466 25.556 30.632
C 21.967 24.871 29.476
C 22.922 23.881 28.999
C 24.021 24.043 29.792
C 23.72  25.062 30.719
C 22.866 22.828 27.887
H 23.85  22.247 27.96 
H 22.019 22.256 28.094
H 22.737 23.208 26.889
C 25.293 23.531 30.065
O 25.942 22.637 29.528
C 25.884 24.371 31.207
H 26.757 24.935 30.857
C 26.266 23.465 32.333
O 25.584 23.106 33.255
O 27.567 22.987 32.144
C 27.981 21.98  33.111
H 29.114 21.807 33.037
H 27.701 22.289 34.112
H 27.469 21.084 32.822
C 26.906 31.201 33.592
H 27.784 31.792 33.246
H 26.762 31.393 34.663
C 25.623 31.674 32.908
H 24.712 31.117 33.198
C 25.36  32.726 32.08 
C 26.35  33.79  31.646
H 26.588 33.711 30.631
H 26.037 34.878 31.8  
H 27.232 33.758 32.295
C 23.957 33.005 31.598
H 23.473 32.029 31.632
H 23.96  33.247 30.514
C 23.179 34.052 32.45 
H 23.849 34.61  33.127
H 22.363 33.551 33.003
C 22.507 35.14  31.567
H 23.068 35.201 30.619
H 22.627 36.151 32.008
C 20.971 34.998 31.273
H 20.346 34.963 32.164
C 20.616 33.645 30.573
H 20.798 32.746 31.095
H 19.519 33.743 30.271
H 21.283 33.645 29.705
C 20.381 36.247 30.396
H 19.415 35.956 30.024
H 21.074 36.253 29.547
C 20.405 37.633 31.052
H 21.232 38.189 30.683
H 20.574 37.487 32.124
C 19.129 38.378 30.68 
H 18.756 38.601 31.684
H 18.381 37.734 30.18 
C 19.325 39.751 29.87 
H 19.939 39.555 28.95 
C 20.187 40.689 30.72 
H 19.539 41.088 31.469
H 21.067 40.22  31.222
H 20.54  41.505 30.207
C 17.992 40.426 29.481
H 17.371 40.776 30.35 
H 17.308 39.787 28.927
C 18.164 41.536 28.454
H 17.646 41.367 27.482
H 19.198 41.465 28.067
C 17.816 42.905 29.164
H 18.071 42.846 30.166
H 16.742 43.116 28.961
C 18.62  44.085 28.62 
H 19.686 43.877 28.602
C 18.367 45.343 29.504
H 18.748 46.291 29.029
H 17.247 45.348 29.658
H 18.924 45.185 30.457
C 18.35  44.399 27.127
H 17.376 44.7   26.852
H 19.062 45.071 26.727
H 18.559 43.487 26.585
