137

Mg 22.92  24.852 41.764
C 21.135 21.976 41.694
C 23.243 24.673 38.315
H 23.411 24.505 37.221
C 24.222 27.874 41.758
H 24.603 28.897 41.945
C 22.851 24.831 45.295
H 22.805 24.779 46.33 
N 22.194 23.569 40.169
C 21.5   22.38  40.424
C 21.225 21.613 39.14 
H 21.591 20.616 39.199
C 22.017 22.452 38.06 
H 21.345 22.79  37.287
C 22.536 23.629 38.894
C 23.128 21.761 37.319
H 23.776 21.328 38.058
H 22.525 20.963 36.863
H 23.588 22.447 36.606
C 19.761 21.548 38.812
H 19.348 22.504 38.611
H 19.249 21.013 39.638
C 19.518 20.585 37.551
H 20.452 20.578 36.983
H 19.354 19.5   37.861
C 18.425 20.891 36.595
O 18.083 22.043 36.304
O 17.807 19.804 36.026
N 23.595 26.174 40.217
C 23.742 25.908 38.882
C 24.154 27.104 38.244
C 24.428 28.    39.275
C 24.128 27.398 40.46 
C 24.358 27.274 36.735
H 25.138 28.001 36.53 
H 24.614 26.265 36.401
H 23.407 27.653 36.377
C 25.045 29.404 39.203
H 25.803 29.555 39.931
C 24.84  30.302 38.234
H 24.081 30.119 37.484
H 25.394 31.277 38.151
N 23.494 26.151 43.321
C 23.918 27.362 43.037
C 24.244 28.059 44.349
C 23.789 27.149 45.38 
C 23.338 25.994 44.663
C 24.764 29.448 44.559
H 24.845 29.624 45.614
H 25.705 29.47  44.059
H 24.128 30.185 44.006
C 23.85  27.335 46.841
H 24.511 26.622 47.276
H 24.337 28.32  46.995
C 22.464 27.422 47.578
H 22.752 27.404 48.691
H 21.963 28.417 47.469
H 21.747 26.63  47.237
N 22.115 23.698 43.205
C 22.177 23.774 44.632
C 21.533 22.609 45.158
C 21.088 21.907 44.076
C 21.493 22.611 42.91 
C 21.352 22.319 46.665
H 22.131 22.878 47.29 
H 20.338 22.496 46.939
H 21.517 21.259 46.797
C 20.265 20.795 43.683
O 19.59  20.018 44.367
C 20.393 20.703 42.117
H 19.391 20.682 41.815
C 21.099 19.436 41.908
O 22.279 19.273 42.193
O 20.276 18.564 41.288
C 20.933 17.226 41.041
H 20.268 16.807 40.224
H 21.927 17.479 40.617
H 20.936 16.637 41.93 
C 16.851 20.096 35.009
H 17.302 20.698 34.232
H 15.957 20.568 35.449
C 16.263 18.769 34.615
H 15.788 18.197 35.409
C 16.156 18.316 33.351
C 16.675 18.98  32.087
H 17.192 19.937 32.166
H 17.441 18.335 31.566
H 15.916 19.073 31.336
C 15.486 16.933 33.162
H 15.589 16.252 34.031
H 15.984 16.385 32.418
C 14.045 16.993 32.863
H 13.749 18.064 32.46 
H 13.463 16.896 33.809
C 13.6   15.907 31.761
H 14.414 15.13  31.728
H 13.733 16.413 30.829
C 12.129 15.37  31.927
H 12.022 14.895 32.902
C 11.627 14.366 30.934
H 10.6   14.145 31.176
H 11.495 14.767 29.938
H 12.207 13.486 30.878
C 11.125 16.563 32.012
H 11.33  17.058 32.916
H 10.1   16.207 32.07 
C 11.21  17.673 30.945
H 11.981 17.392 30.27 
H 11.566 18.703 31.211
C  9.862 17.916 30.219
H  9.34  18.661 30.814
H  9.309 17.04  30.362
C  9.855 18.272 28.673
H 10.247 17.462 28.091
C 10.782 19.468 28.292
H 10.341 20.475 28.559
H 11.753 19.324 28.821
H 10.953 19.449 27.268
C  8.375 18.585 28.106
H  8.069 19.483 28.645
H  7.652 17.83  28.416
C  8.247 18.84  26.619
H  9.135 18.534 26.162
H  8.099 19.918 26.401
C  6.95  18.246 25.996
H  6.094 18.506 26.541
H  6.982 17.128 26.006
C  6.544 18.756 24.588
H  6.508 19.916 24.554
C  5.128 18.399 24.307
H  4.942 17.292 24.353
H  4.389 18.972 24.875
H  4.881 18.479 23.312
C  7.545 18.136 23.609
H  7.302 18.667 22.654
H  8.602 18.119 23.934
H  7.251 17.146 23.415
