137

Mg 29.062 28.278 32.344
C 26.85  26.51  30.519
C 31.437 27.423 29.879
H 32.156 27.256 29.094
C 31.595 29.499 34.281
H 32.425 29.875 34.85 
C 26.863 28.537 35.004
H 26.041 28.6   35.705
N 29.113 27.241 30.322
C 28.048 26.624 29.79 
C 28.386 26.008 28.376
H 28.108 24.907 28.356
C 29.903 26.036 28.392
H 30.245 26.42  27.41 
C 30.163 26.963 29.57 
C 30.687 24.678 28.7  
H 30.438 24.299 29.676
H 30.414 23.871 28.005
H 31.784 24.828 28.773
C 27.677 26.696 27.183
H 28.081 27.667 27.235
H 26.593 26.61  27.437
C 27.986 26.178 25.741
H 28.636 26.945 25.355
H 28.519 25.236 25.764
C 26.822 25.951 24.783
O 26.844 26.163 23.596
O 25.689 25.495 25.414
N 31.165 28.599 32.066
C 31.961 28.153 30.998
C 33.333 28.593 31.179
C 33.363 29.279 32.443
C 32.004 29.137 33.025
C 34.43  28.225 30.256
H 34.624 28.959 29.486
H 35.416 28.208 30.764
H 34.173 27.278 29.802
C 34.482 29.918 33.136
H 34.402 29.979 34.245
C 35.48  30.642 32.592
H 35.68  30.784 31.523
H 36.247 31.144 33.194
N 29.176 28.92  34.347
C 30.329 29.377 34.932
C 30.034 29.822 36.291
C 28.642 29.601 36.501
C 28.155 29.03  35.292
C 31.076 30.377 37.214
H 31.508 31.291 36.85 
H 30.666 30.593 38.157
H 31.908 29.676 37.384
C 27.784 29.999 37.657
H 26.825 29.41  37.715
H 28.379 29.82  38.606
C 27.424 31.47  37.548
H 28.275 32.114 37.265
H 26.806 31.583 36.672
H 26.955 31.749 38.433
N 27.276 27.729 32.675
C 26.491 27.967 33.764
C 25.13  27.448 33.485
C 25.246 26.806 32.225
C 26.606 26.985 31.802
C 23.794 27.581 34.288
H 23.792 26.737 34.964
H 23.647 28.542 34.852
H 22.995 27.471 33.585
C 24.52  26.048 31.201
O 23.384 25.62  31.08 
C 25.577 25.905 30.097
H 25.143 26.35  29.236
C 25.782 24.406 29.833
O 26.427 23.638 30.509
O 25.22  24.108 28.666
C 25.445 22.75  28.088
H 25.191 22.878 27.059
H 26.538 22.572 27.969
H 24.986 21.859 28.559
C 24.415 25.55  24.591
H 24.398 24.958 23.662
H 24.229 26.575 24.338
C 23.278 25.093 25.472
H 23.537 25.283 26.529
C 22.094 24.496 25.117
C 21.756 23.977 23.723
H 21.96  24.778 23.071
H 22.4   23.111 23.527
H 20.644 23.828 23.651
C 21.302 24.081 26.361
H 21.992 23.632 27.048
H 20.714 23.197 25.968
C 20.521 25.214 27.093
H 20.657 26.25  26.73 
H 20.975 25.144 28.107
C 18.964 24.956 27.114
H 18.655 24.43  28.022
H 18.701 24.289 26.316
C 18.027 26.233 27.187
H 18.317 26.735 26.291
C 18.26  27.218 28.403
H 17.711 28.157 28.339
H 18.075 26.809 29.379
H 19.323 27.602 28.253
C 16.58  25.685 27.19 
H 16.377 25.025 26.313
H 15.93  26.5   27.056
C 16.075 24.955 28.528
H 15.084 25.373 28.815
H 16.733 25.032 29.414
C 15.78  23.441 28.308
H 16.283 23.122 27.433
H 14.698 23.105 28.387
C 16.451 22.553 29.354
H 17.519 22.764 29.269
C 16.4   21.051 28.874
H 16.479 20.346 29.718
H 15.436 20.78  28.457
H 17.195 20.822 28.169
C 16.013 22.676 30.844
H 15.012 22.135 30.907
H 15.926 23.696 31.165
C 16.957 22.037 31.902
H 17.125 22.804 32.649
H 17.998 21.79  31.534
C 16.349 20.81  32.594
H 15.42  20.526 32.155
H 16.232 21.206 33.618
C 17.344 19.591 32.623
H 17.46  19.237 31.574
C 16.606 18.479 33.398
H 17.27  17.666 33.64 
H 16.155 18.91  34.256
H 15.831 18.077 32.758
C 18.643 19.9   33.366
H 18.448 20.34  34.318
H 19.099 18.961 33.641
H 19.197 20.673 32.78 
