137

Mg 27.424 28.461 43.664
C 26.096 25.703 42.026
C 29.273 29.069 40.745
H 29.771 29.218 39.8  
C 28.982 30.958 45.214
H 29.402 31.798 45.84 
C 25.694 27.639 46.407
H 25.056 27.459 47.273
N 27.436 27.679 41.548
C 26.791 26.553 41.125
C 27.03  26.302 39.686
H 27.449 25.301 39.47 
C 28.188 27.292 39.343
H 27.81  27.998 38.565
C 28.347 28.05  40.631
C 29.456 26.619 38.802
H 30.184 27.374 38.652
H 29.882 25.8   39.412
H 29.055 26.104 37.955
C 25.67  26.389 38.871
H 25.339 27.403 39.073
H 24.98  25.665 39.287
C 25.789 26.133 37.391
H 26.716 26.405 36.99 
H 25.715 25.041 37.138
C 24.685 26.772 36.571
O 24.831 27.658 35.758
O 23.497 26.116 36.79 
N 28.806 29.813 43.03 
C 29.5   29.924 41.828
C 30.387 31.043 41.915
C 30.298 31.593 43.146
C 29.348 30.779 43.869
C 31.339 31.367 40.797
H 30.821 31.928 40.009
H 32.107 32.027 41.204
H 31.725 30.401 40.51 
C 30.952 32.769 43.711
H 32.062 32.745 43.636
C 30.333 33.873 44.22 
H 29.229 34.053 44.127
H 30.938 34.777 44.4  
N 27.334 29.177 45.533
C 28.029 30.217 45.982
C 27.69  30.522 47.372
C 26.728 29.446 47.722
C 26.584 28.654 46.537
C 28.334 31.528 48.244
H 29.344 31.241 48.459
H 28.473 32.546 47.812
H 27.762 31.742 49.088
C 26.128 29.221 49.049
H 26.13  28.152 49.318
H 26.737 29.724 49.815
C 24.71  29.863 49.192
H 24.598 30.896 48.928
H 24.075 29.323 48.396
H 24.16  29.584 50.081
N 26.205 27.013 44.17 
C 25.505 26.789 45.322
C 24.64  25.565 45.29 
C 24.894 25.176 43.982
C 25.906 25.966 43.37 
C 23.6   25.082 46.318
H 22.835 24.441 45.792
H 24.115 24.614 47.159
H 22.985 25.935 46.735
C 24.589 24.049 43.028
O 23.903 23.042 43.09 
C 25.365 24.4   41.734
H 24.602 24.669 41.066
C 26.176 23.233 41.429
O 27.306 22.986 41.878
O 25.65  22.563 40.395
C 26.56  21.807 39.519
H 26.099 21.554 38.539
H 27.42  22.424 39.18 
H 26.959 20.928 40.049
C 22.373 26.622 36.023
H 22.531 26.425 34.929
H 22.215 27.703 36.233
C 21.187 25.84  36.628
H 21.044 25.995 37.695
C 20.223 25.076 36.057
C 20.179 24.646 34.609
H 20.985 25.083 34.054
H 20.261 23.586 34.491
H 19.314 25.086 34.176
C 19.156 24.347 36.892
H 19.447 24.283 37.944
H 19.164 23.28  36.636
C 17.688 24.804 36.721
H 17.113 23.929 36.383
H 17.677 25.652 35.952
C 17.051 25.12  38.024
H 17.649 25.13  38.921
H 16.241 24.381 38.182
C 16.316 26.5   37.959
H 16.987 27.362 37.697
C 15.83  26.949 39.342
H 15.466 27.986 39.216
H 14.907 26.43  39.68 
H 16.627 26.843 40.092
C 15.117 26.54  36.956
H 15.492 26.527 35.93 
H 14.625 27.483 36.965
C 13.901 25.567 37.287
H 13.096 26.24  37.421
H 14.071 25.113 38.26 
C 13.568 24.457 36.247
H 13.732 23.548 36.817
H 14.351 24.361 35.489
C 12.121 24.517 35.668
H 11.333 24.704 36.444
C 11.844 23.207 34.957
H 12.642 23.123 34.215
H 11.954 22.329 35.634
H 10.797 23.285 34.59 
C 11.987 25.704 34.669
H 12.572 25.361 33.802
H 12.392 26.712 34.956
C 10.546 26.128 34.151
H 10.359 27.145 34.346
H  9.8   25.593 34.749
C 10.314 25.634 32.75 
H 10.151 24.5   32.718
H 11.154 25.871 32.069
C  8.983 26.066 32.026
H  8.998 27.176 32.006
C  7.767 25.476 32.757
H  7.737 25.8   33.828
H  6.899 25.711 32.155
H  7.81  24.444 32.588
C  8.965 25.621 30.563
H  8.064 26.012 30.09 
H  9.857 26.033 30.124
H  9.089 24.599 30.483
