137

Mg 23.392 18.054 27.337
C 23.727 16.053 24.504
C 26.004 19.953 26.01 
H 26.9   20.43  25.637
C 23.56  19.896 30.224
H 23.596 20.365 31.152
C 21.343 15.839 28.7  
H 20.749 15.103 29.196
N 24.539 18.101 25.425
C 24.46  17.239 24.375
C 25.384 17.623 23.158
H 25.905 16.647 23.02 
C 26.25  18.741 23.798
H 26.307 19.698 23.184
C 25.543 18.961 25.172
C 27.781 18.319 24.032
H 28.11  17.822 23.125
H 28.407 19.179 24.172
H 27.983 17.717 24.913
C 24.627 18.187 21.977
H 23.958 18.982 22.365
H 23.975 17.351 21.684
C 25.487 18.744 20.79 
H 26.541 18.79  21.038
H 25.478 17.993 19.97 
C 25.279 20.111 20.182
O 25.033 20.395 19.017
O 25.37  21.052 21.131
N 24.444 19.731 27.93 
C 25.397 20.414 27.232
C 25.867 21.61  27.929
C 25.241 21.641 29.217
C 24.326 20.441 29.176
C 26.978 22.45  27.501
H 27.509 22.761 28.444
H 27.697 21.835 26.974
H 26.676 23.286 26.905
C 25.323 22.71  30.237
H 25.308 22.315 31.206
C 25.457 24.024 30.032
H 25.418 24.32  28.96 
H 25.601 24.795 30.883
N 22.624 17.882 29.136
C 22.848 18.698 30.173
C 22.271 18.124 31.333
C 21.438 17.07  30.903
C 21.758 16.894 29.512
C 22.429 18.699 32.678
H 21.916 18.052 33.455
H 23.487 18.717 32.922
H 22.121 19.702 32.795
C 20.431 16.345 31.713
H 20.785 15.273 31.636
H 20.62  16.771 32.74 
C 18.994 16.606 31.268
H 18.84  16.497 30.155
H 18.304 15.866 31.786
H 18.743 17.627 31.522
N 22.685 16.336 26.786
C 21.806 15.541 27.417
C 21.426 14.432 26.558
C 22.238 14.554 25.429
C 22.978 15.722 25.656
C 20.416 13.447 26.813
H 19.427 13.921 26.655
H 20.48  12.64  26.065
H 20.562 13.073 27.837
C 22.568 13.955 24.247
O 22.186 12.939 23.763
C 23.552 14.854 23.6  
H 23.232 15.07  22.583
C 24.889 14.106 23.62 
O 25.726 14.189 24.504
O 25.152 13.347 22.503
C 26.477 12.837 22.393
H 27.208 13.647 22.302
H 26.729 12.238 23.182
H 26.539 12.226 21.451
C 24.579 22.235 20.812
H 23.661 21.897 20.322
H 25.09  22.959 20.111
C 24.458 23.063 22.047
H 25.42  23.298 22.449
C 23.406 23.693 22.554
C 21.981 23.641 22.   
H 21.679 24.585 21.48 
H 21.933 22.807 21.319
H 21.281 23.528 22.827
C 23.589 24.305 23.929
H 24.357 23.698 24.412
H 22.668 24.    24.514
C 23.762 25.826 24.014
H 22.678 26.154 24.12 
H 24.221 26.372 23.228
C 24.415 26.184 25.397
H 24.621 25.394 26.054
H 23.708 26.768 25.882
C 25.694 27.035 25.356
H 25.637 27.816 24.601
C 26.923 26.206 24.8  
H 26.977 25.2   25.289
H 26.802 25.985 23.783
H 27.884 26.63  25.123
C 25.921 27.651 26.761
H 26.984 27.888 26.891
H 25.521 26.885 27.434
C 25.103 28.937 27.083
H 24.523 29.049 26.224
H 25.675 29.826 27.149
C 24.071 28.795 28.3  
H 24.459 29.484 29.03 
H 23.906 27.779 28.681
C 22.671 29.203 28.053
H 22.285 28.398 27.351
C 22.566 30.62  27.437
H 22.807 30.517 26.393
H 21.489 30.865 27.287
H 23.035 31.417 27.959
C 21.714 28.991 29.267
H 22.08  29.788 29.937
H 21.859 27.957 29.669
C 20.235 29.314 29.   
H 20.027 29.196 27.917
H 19.957 30.295 29.342
C 19.27  28.317 29.778
H 19.758 27.86  30.617
H 18.825 27.555 29.117
C 17.946 28.888 30.374
H 18.34  29.845 30.803
C 17.254 28.006 31.39 
H 16.353 28.499 31.616
H 16.861 27.091 31.113
H 17.926 27.903 32.264
C 17.032 29.21  29.155
H 17.082 28.493 28.408
H 16.029 29.25  29.572
H 17.441 30.097 28.721
