137

Mg 29.975 27.769 33.392
C 28.045 27.042 30.752
C 32.552 28.68  31.279
H 33.363 28.904 30.669
C 31.811 28.595 36.078
H 32.438 28.859 36.958
C 27.159 27.293 35.506
H 26.316 27.251 36.223
N 30.228 27.957 31.349
C 29.28  27.654 30.452
C 29.76  27.668 28.98 
H 29.633 26.594 28.641
C 31.224 27.991 29.204
H 31.337 28.967 28.686
C 31.343 28.239 30.695
C 32.275 27.06  28.534
H 32.401 26.233 29.236
H 31.977 26.808 27.522
H 33.152 27.637 28.509
C 28.945 28.572 27.958
H 29.183 29.605 28.043
H 27.858 28.509 28.13 
C 29.212 28.328 26.437
H 29.804 29.149 26.091
H 29.827 27.392 26.413
C 28.066 28.074 25.496
O 28.126 27.145 24.698
O 26.959 28.805 25.795
N 31.897 28.45  33.669
C 32.731 28.754 32.686
C 34.042 29.115 33.287
C 33.879 28.968 34.665
C 32.489 28.706 34.846
C 35.274 29.608 32.522
H 35.257 30.695 32.749
H 36.225 29.164 32.824
H 35.117 29.511 31.405
C 34.921 29.194 35.739
H 34.693 28.857 36.758
C 36.183 29.681 35.594
H 36.687 29.918 34.621
H 36.801 29.748 36.516
N 29.578 27.895 35.476
C 30.513 28.316 36.395
C 29.831 28.356 37.711
C 28.477 28.054 37.465
C 28.33  27.748 36.1  
C 30.449 28.697 39.06 
H 30.276 28.011 39.867
H 31.534 28.754 38.868
H 30.123 29.702 39.225
C 27.364 28.187 38.539
H 26.881 27.21  38.742
H 27.84  28.602 39.478
C 26.257 29.222 38.211
H 26.622 29.887 37.389
H 25.364 28.72  37.956
H 26.071 29.806 39.143
N 28.007 27.12  33.21 
C 26.931 26.966 34.186
C 25.733 26.469 33.399
C 26.216 26.434 32.076
C 27.547 26.848 32.   
C 24.325 26.341 33.949
H 24.365 25.43  34.585
H 24.164 27.191 34.641
H 23.574 26.208 33.175
C 25.798 26.074 30.726
O 24.737 25.676 30.271
C 26.954 26.498 29.842
H 26.479 27.219 29.127
C 27.275 25.196 29.151
O 27.351 24.087 29.691
O 27.499 25.37  27.777
C 27.668 24.    27.133
H 28.467 23.45  27.622
H 26.763 23.406 27.239
H 27.923 24.026 26.075
C 25.764 28.553 25.039
H 25.994 27.777 24.227
H 25.475 29.522 24.576
C 24.745 28.143 26.071
H 24.605 28.941 26.872
C 24.235 26.885 26.268
C 24.298 25.725 25.312
H 25.142 25.166 25.766
H 23.431 25.011 25.219
H 24.455 26.032 24.32 
C 23.295 26.623 27.494
H 23.523 27.404 28.222
H 23.643 25.668 27.925
C 21.802 26.522 27.248
H 21.674 26.322 26.164
H 21.387 27.573 27.343
C 20.952 25.473 28.055
H 20.152 26.052 28.602
H 21.581 25.105 28.823
C 20.309 24.296 27.338
H 20.084 24.776 26.363
C 19.229 23.836 28.31 
H 19.637 23.709 29.279
H 18.453 24.618 28.346
H 18.803 22.877 27.981
C 21.25  23.102 27.029
H 22.052 23.513 26.367
H 20.909 22.3   26.429
C 22.062 22.509 28.247
H 21.582 22.745 29.178
H 23.042 22.886 28.148
C 22.221 20.963 28.306
H 23.152 20.855 27.741
H 21.477 20.324 27.725
C 22.397 20.299 29.73 
H 23.011 20.972 30.31 
C 23.079 18.957 29.556
H 22.957 18.382 30.467
H 22.567 18.335 28.854
H 24.114 19.145 29.281
C 20.967 20.195 30.396
H 20.23  19.711 29.718
H 20.811 21.269 30.565
C 20.946 19.639 31.864
H 20.232 20.319 32.268
H 21.874 19.848 32.381
C 20.379 18.172 31.845
H 21.111 17.732 32.427
H 20.402 17.772 30.846
C 18.911 18.141 32.396
H 18.85  18.608 33.368
C 18.308 16.743 32.601
H 18.22  16.178 31.711
H 19.047 16.287 33.233
H 17.348 16.777 33.106
C 17.938 18.937 31.432
H 18.187 19.948 31.265
H 18.046 18.586 30.421
H 16.879 18.848 31.765
