137

Mg 24.602 31.556 36.806
C 22.845 29.134 38.614
C 21.532 32.696 35.857
H 20.676 33.071 35.362
C 26.191 33.86  35.006
H 26.654 34.478 34.364
C 27.524 30.638 38.332
H 28.397 30.308 38.705
N 22.423 30.932 37.189
C 21.984 29.934 37.954
C 20.442 29.742 37.886
H 20.153 28.773 37.452
C 20.055 30.992 37.015
H 19.568 31.783 37.633
C 21.398 31.592 36.691
C 19.117 30.667 35.821
H 18.453 31.513 35.661
H 19.734 30.413 34.926
H 18.475 29.851 36.13 
C 19.802 29.706 39.305
H 20.013 30.637 39.839
H 20.09  28.869 39.847
C 18.278 29.673 39.114
H 18.02  29.329 38.146
H 17.818 29.013 39.825
C 17.616 31.005 39.454
O 17.374 31.377 40.577
O 17.436 31.736 38.32 
N 23.961 33.    35.515
C 22.661 33.319 35.208
C 22.755 34.442 34.253
C 24.074 34.663 33.857
C 24.801 33.809 34.781
C 21.51  35.17  33.726
H 20.608 34.524 33.94 
H 21.387 36.127 34.272
H 21.5   35.322 32.69 
C 24.705 35.533 32.792
H 25.445 35.062 32.199
C 24.366 36.819 32.429
H 23.541 37.372 32.862
H 24.951 37.358 31.638
N 26.581 32.201 36.689
C 27.026 33.079 35.823
C 28.506 33.049 35.793
C 28.886 32.149 36.719
C 27.617 31.599 37.32 
C 29.307 33.965 34.931
H 28.945 34.916 35.37 
H 30.36  33.804 34.996
H 29.045 33.924 33.905
C 30.263 31.811 37.276
H 30.366 30.749 37.416
H 30.997 32.16  36.575
C 30.404 32.604 38.589
H 31.247 32.154 39.101
H 30.57  33.619 38.389
H 29.593 32.423 39.232
N 25.163 30.164 38.28 
C 26.384 29.931 38.798
C 26.31  28.792 39.674
C 24.948 28.362 39.593
C 24.29  29.253 38.73 
C 27.529 28.05  40.383
H 27.123 27.075 40.648
H 28.388 27.941 39.688
H 27.883 28.612 41.258
C 23.995 27.319 39.898
O 24.149 26.238 40.427
C 22.628 27.802 39.394
H 21.954 28.027 40.207
C 22.043 26.71  38.585
O 22.473 26.282 37.518
O 20.778 26.361 38.992
C 20.032 25.446 38.073
H 19.282 24.999 38.72 
H 19.729 25.908 37.178
H 20.724 24.642 38.032
C 17.091 33.115 38.491
H 17.913 33.781 38.929
H 16.156 33.083 39.002
C 16.773 33.535 37.063
H 15.956 33.009 36.668
C 17.342 34.456 36.249
C 18.538 35.182 36.609
H 18.308 36.296 36.49 
H 18.973 35.074 37.624
H 19.377 34.978 35.955
C 17.033 34.745 34.785
H 16.629 33.82  34.422
H 17.946 34.934 34.244
C 15.878 35.809 34.465
H 15.958 36.546 35.265
H 14.94  35.345 34.701
C 15.964 36.349 33.024
H 15.033 36.013 32.566
H 16.722 35.91  32.443
C 16.099 37.881 32.996
H 15.453 38.248 33.761
C 15.562 38.49  31.64 
H 15.986 38.07  30.748
H 14.43  38.321 31.645
H 15.656 39.625 31.586
C 17.455 38.409 33.457
H 17.498 37.966 34.442
H 17.388 39.454 33.557
C 18.692 37.895 32.628
H 18.425 37.003 31.965
H 19.311 37.453 33.355
C 19.361 39.006 31.855
H 20.269 39.272 32.38 
H 18.679 39.937 31.894
C 19.486 38.849 30.228
H 18.571 38.48  29.779
C 20.473 37.808 29.705
H 20.209 37.649 28.693
H 21.52  38.013 29.826
H 20.272 36.853 30.148
C 19.83  40.157 29.376
H 19.758 39.861 28.304
H 20.825 40.515 29.564
C 18.787 41.33  29.463
H 17.977 40.951 30.08 
H 18.397 41.547 28.432
C 19.338 42.621 30.025
H 18.992 43.486 29.51 
H 20.413 42.575 29.872
C 19.182 42.917 31.465
H 19.682 42.157 32.065
C 17.697 42.923 31.86 
H 17.515 43.212 32.826
H 17.168 43.613 31.249
H 17.197 41.986 31.786
C 19.888 44.173 31.935
H 19.69  44.297 32.99 
H 20.965 44.092 31.803
H 19.534 44.977 31.327
