137

Mg 36.209 33.839 34.965
C 33.464 31.975 33.926
C 37.925 32.703 32.331
H 38.518 32.386 31.475
C 38.975 35.462 36.058
H 39.896 36.021 36.352
C 34.53  34.567 37.809
H 34.045 34.964 38.755
N 35.797 32.433 33.391
C 34.564 31.907 33.035
C 34.529 31.137 31.716
H 34.292 30.124 31.984
C 36.039 31.181 31.362
H 36.156 31.609 30.349
C 36.59  32.204 32.376
C 36.76  29.859 31.476
H 37.832 30.072 31.381
H 36.429 29.354 32.401
H 36.396 29.286 30.624
C 33.464 31.6   30.601
H 33.777 32.585 30.151
H 32.569 31.813 31.094
C 33.348 30.608 29.438
H 33.877 31.042 28.556
H 33.806 29.698 29.749
C 31.946 30.124 29.01 
O 31.596 28.977 29.228
O 31.229 31.057 28.419
N 38.107 34.016 34.307
C 38.687 33.44  33.181
C 40.067 33.709 33.09 
C 40.343 34.653 34.115
C 39.079 34.696 34.901
C 40.995 33.143 32.117
H 40.527 32.158 31.905
H 41.059 33.726 31.183
H 42.01  33.032 32.483
C 41.665 35.251 34.418
H 42.031 35.249 35.476
C 42.427 35.958 33.519
H 42.133 36.179 32.476
H 43.353 36.444 33.925
N 36.667 34.899 36.612
C 37.867 35.555 36.899
C 37.839 36.182 38.23 
C 36.478 35.94  38.613
C 35.803 35.086 37.674
C 38.854 36.903 38.861
H 39.834 36.632 38.502
H 38.593 37.961 38.576
H 38.762 36.811 39.929
C 35.824 36.547 39.901
H 35.261 35.723 40.388
H 36.647 36.853 40.551
C 34.857 37.625 39.427
H 35.217 38.131 38.533
H 33.92  37.231 39.139
H 34.729 38.395 40.288
N 34.365 33.429 35.759
C 33.78  33.822 36.931
C 32.464 33.294 37.04 
C 32.272 32.567 35.849
C 33.466 32.648 35.164
C 31.478 33.515 38.098
H 31.974 34.325 38.581
H 30.508 33.719 37.644
H 31.44  32.666 38.846
C 31.372 31.717 35.156
O 30.268 31.193 35.387
C 32.108 31.318 33.869
H 31.424 31.605 33.047
C 32.226 29.837 33.803
O 32.615 29.127 34.701
O 31.815 29.385 32.556
C 32.065 27.943 32.4  
H 33.059 27.59  32.718
H 31.245 27.37  32.872
H 31.965 27.683 31.348
C 29.908 30.63  27.989
H 29.387 30.067 28.744
H 30.014 29.803 27.187
C 29.097 31.761 27.49 
H 29.099 31.899 26.399
C 28.33  32.587 28.228
C 28.183 32.501 29.71 
H 27.233 32.043 29.943
H 28.889 31.732 30.086
H 28.454 33.422 30.19 
C 27.52  33.667 27.536
H 27.917 33.855 26.52 
H 27.463 34.594 28.111
C 26.078 33.179 27.054
H 26.064 32.186 27.282
H 25.901 33.289 26.017
C 25.001 33.908 27.919
H 24.731 34.802 27.366
H 25.429 34.21  28.922
C 23.807 33.058 28.418
H 24.271 32.368 29.169
C 23.145 32.233 27.345
H 22.765 32.836 26.518
H 23.945 31.635 26.807
H 22.486 31.474 27.755
C 22.904 33.965 29.225
H 22.67  34.884 28.747
H 23.598 34.265 30.023
C 21.674 33.318 29.918
H 21.803 33.604 31.012
H 21.619 32.225 29.72 
C 20.342 33.87  29.333
H 20.101 33.213 28.489
H 20.442 34.841 28.926
C 19.086 33.803 30.224
H 19.121 34.497 31.046
C 18.974 32.339 30.759
H 18.015 32.081 31.141
H 19.174 31.615 29.949
H 19.725 32.113 31.534
C 17.824 34.138 29.329
H 17.459 33.222 28.827
H 18.179 34.869 28.572
C 16.581 34.77  30.045
H 16.025 35.48  29.364
H 17.033 35.378 30.844
C 15.601 33.645 30.618
H 16.055 32.662 30.644
H 14.624 33.556 30.133
C 15.222 33.838 32.053
H 14.686 34.797 32.085
C 16.423 33.748 33.022
H 16.048 33.607 34.023
H 17.097 33.03  32.715
H 16.946 34.728 33.028
C 14.139 32.819 32.612
H 13.901 32.958 33.653
H 13.198 33.089 32.114
H 14.35  31.8   32.427
