137

Mg 21.211 19.325 22.366
C 23.525 21.671 21.314
C 21.093 21.079 25.279
H 21.06  21.513 26.272
C 18.657 17.33  23.332
H 17.896 16.624 23.756
C 21.423 17.77  19.389
H 21.659 17.07  18.554
N 22.229 21.143 23.197
C 23.005 21.996 22.537
C 23.256 23.296 23.209
H 24.328 23.428 23.199
C 22.789 22.915 24.662
H 22.154 23.737 25.079
C 22.023 21.667 24.446
C 23.955 22.74  25.692
H 24.437 23.702 25.884
H 23.428 22.307 26.591
H 24.673 22.074 25.091
C 22.462 24.443 22.441
H 21.385 24.203 22.418
H 22.77  24.32  21.457
C 22.529 25.857 23.018
H 21.588 26.094 23.521
H 23.387 25.88  23.771
C 22.784 27.089 22.105
O 23.675 27.108 21.262
O 21.995 28.112 22.463
N 20.038 19.182 24.162
C 20.209 19.932 25.247
C 19.255 19.438 26.299
C 18.505 18.392 25.763
C 19.066 18.233 24.374
C 19.104 19.94  27.686
H 18.287 19.436 28.174
H 20.026 19.656 28.226
H 18.941 20.983 27.734
C 17.404 17.541 26.304
H 16.501 17.363 25.693
C 17.618 16.831 27.428
H 18.514 16.979 28.066
H 16.837 16.145 27.809
N 20.048 17.979 21.451
C 19.077 17.246 22.003
C 18.576 16.323 20.979
C 19.389 16.478 19.837
C 20.368 17.482 20.233
C 17.501 15.266 21.165
H 16.691 15.388 20.481
H 17.883 14.233 21.015
H 17.143 15.44  22.171
C 19.139 15.738 18.481
H 20.04  15.283 18.118
H 18.326 14.977 18.59 
C 18.724 16.705 17.314
H 19.176 16.397 16.358
H 17.677 16.77  17.211
H 19.064 17.749 17.481
N 22.352 19.543 20.706
C 22.351 18.777 19.531
C 23.414 19.237 18.607
C 23.941 20.395 19.289
C 23.25  20.451 20.614
C 23.818 18.738 17.36 
H 24.192 19.415 16.599
H 24.665 18.066 17.552
H 23.042 18.081 16.923
C 24.891 21.439 19.253
O 25.643 21.726 18.333
C 24.689 22.261 20.493
H 24.482 23.238 20.106
C 25.953 22.134 21.173
O 26.465 21.122 21.587
O 26.463 23.347 21.389
C 27.912 23.386 21.883
H 28.461 24.085 21.222
H 28.034 23.594 22.983
H 28.465 22.501 21.673
C 22.452 29.437 22.169
H 22.41  29.531 21.045
H 23.52  29.556 22.52 
C 21.739 30.45  22.952
H 21.018 30.962 22.337
C 21.81  30.894 24.213
C 23.    30.582 25.102
H 23.415 31.539 25.514
H 22.54  30.114 25.851
H 23.835 30.042 24.617
C 20.871 32.018 24.554
H 20.693 32.134 25.616
H 19.866 31.772 24.164
C 21.403 33.419 24.234
H 22.472 33.259 23.98 
H 21.454 34.06  25.148
C 20.774 33.989 22.956
H 20.424 33.264 22.213
H 21.707 34.458 22.511
C 19.611 35.026 23.165
H 20.141 35.864 23.645
C 18.643 34.637 24.234
H 17.919 33.917 23.681
H 19.131 34.231 25.137
H 18.099 35.546 24.531
C 18.9   35.474 21.78 
H 18.056 36.077 22.137
H 18.398 34.58  21.353
C 19.768 36.201 20.792
H 19.462 35.989 19.745
H 20.808 35.98  20.907
C 19.501 37.729 20.901
H 20.533 38.125 20.903
H 19.207 37.86  21.951
C 18.466 38.377 19.842
H 18.868 38.268 18.806
C 18.369 39.913 20.06 
H 17.963 40.328 19.112
H 17.862 40.181 21.012
H 19.383 40.446 20.057
C 17.076 37.695 19.887
H 16.803 37.744 20.975
H 17.242 36.698 19.653
C 15.912 38.221 19.038
H 15.504 37.271 18.6  
H 16.19  38.854 18.182
C 14.916 39.089 19.909
H 15.274 39.174 20.9  
H 13.901 38.671 20.068
C 14.549 40.486 19.316
H 15.444 41.002 18.979
C 13.868 41.315 20.283
H 14.464 41.398 21.197
H 13.73  42.297 19.784
H 12.982 40.8   20.604
C 13.649 40.329 17.966
H 14.061 39.641 17.201
H 12.697 39.961 18.216
H 13.254 41.254 17.526
