137

Mg 25.924 31.832 37.57 
C 23.915 31.965 40.312
C 23.728 33.578 35.754
H 23.061 34.324 35.237
C 28.369 32.424 35.184
H 29.144 32.665 34.54 
C 28.293 30.056 39.426
H 28.972 29.382 39.914
N 24.108 32.734 38.03 
C 23.41  32.704 39.229
C 21.994 33.4   39.168
H 21.206 32.689 39.497
C 21.928 33.846 37.619
H 21.704 34.922 37.671
C 23.38  33.368 37.043
C 20.706 33.106 36.935
H 21.002 32.077 36.955
H 19.818 33.341 37.446
H 20.551 33.457 35.919
C 21.733 34.704 40.09 
H 22.247 35.583 39.674
H 22.263 34.516 41.045
C 20.234 35.011 40.408
H 19.686 34.11  40.349
H 20.137 35.278 41.476
C 19.581 35.973 39.354
O 19.877 37.128 39.21 
O 18.471 35.389 38.781
N 25.994 32.649 35.644
C 24.973 33.294 35.091
C 25.269 33.876 33.726
C 26.656 33.534 33.607
C 27.094 32.897 34.868
C 24.302 34.53  32.739
H 23.217 34.533 33.063
H 24.689 35.491 32.462
H 24.241 33.814 31.899
C 27.61  33.728 32.511
H 28.668 33.472 32.686
C 27.418 34.513 31.435
H 26.376 34.897 31.161
H 28.301 34.726 30.763
N 27.888 31.22  37.292
C 28.724 31.655 36.269
C 30.083 31.141 36.485
C 30.041 30.385 37.654
C 28.717 30.538 38.195
C 31.275 31.329 35.581
H 31.053 32.192 35.01 
H 32.165 31.432 36.139
H 31.345 30.457 34.893
C 31.128 29.499 38.283
H 30.791 28.442 38.357
H 32.091 29.599 37.786
C 31.574 30.01  39.74 
H 30.74  30.271 40.405
H 31.964 29.16  40.302
H 32.351 30.747 39.788
N 26.082 31.098 39.428
C 27.076 30.345 40.073
C 26.644 29.938 41.402
C 25.384 30.586 41.485
C 25.105 31.245 40.346
C 27.365 29.045 42.365
H 26.869 28.916 43.289
H 27.348 28.04  41.846
H 28.407 29.412 42.652
C 24.231 30.82  42.42 
O 23.99  30.271 43.499
C 23.264 31.811 41.681
H 23.233 32.695 42.299
C 22.02  31.094 41.554
O 21.783 30.164 40.756
O 21.079 31.532 42.457
C 19.827 30.834 42.793
H 19.194 31.443 43.438
H 19.284 30.592 41.824
H 20.054 29.865 43.216
C 17.563 36.376 38.171
H 18.13  37.011 37.464
H 17.214 36.987 38.981
C 16.497 35.638 37.415
H 15.623 35.355 37.995
C 16.561 35.123 36.207
C 17.761 35.019 35.405
H 18.376 35.954 35.493
H 18.379 34.188 35.684
H 17.412 34.958 34.385
C 15.201 34.648 35.636
H 14.377 34.761 36.365
H 15.19  33.557 35.352
C 14.858 35.514 34.336
H 14.684 34.716 33.627
H 15.674 36.137 33.93 
C 13.555 36.395 34.416
H 13.738 36.983 35.365
H 12.73  35.741 34.714
C 13.239 37.463 33.378
H 14.093 38.101 33.283
C 12.157 38.498 33.886
H 12.713 39.34  34.229
H 11.461 38.782 33.02 
H 11.541 38.027 34.677
C 12.939 36.984 31.941
H 13.771 36.396 31.491
H 12.882 37.867 31.331
C 11.596 36.216 31.784
H 10.939 36.661 31.063
H 10.906 36.366 32.621
C 11.676 34.655 31.595
H 11.475 34.241 32.555
H 12.729 34.412 31.389
C 10.734 34.124 30.481
H  9.74  34.475 30.67 
C 10.532 32.586 30.689
H  9.82  32.221 29.954
H 11.423 32.005 30.547
H 10.138 32.383 31.666
C 11.187 34.526 29.085
H 12.251 34.374 28.996
H 11.019 35.574 29.019
C 10.448 33.911 27.896
H 10.006 34.672 27.268
H  9.533 33.294 28.219
C 11.251 32.998 27.006
H 11.215 32.018 27.377
H 12.263 33.271 27.039
C 10.923 33.064 25.46 
H  9.819 32.89  25.397
C 11.736 31.903 24.86 
H 11.367 31.683 23.902
H 12.793 32.18  24.906
H 11.597 30.95  25.378
C 11.288 34.446 24.85 
H 11.294 34.36  23.78 
H 10.46  35.14  24.981
H 12.172 35.    25.158
