137

Mg 28.111 30.261 35.501
C 26.976 29.212 38.687
C 25.043 29.251 34.259
H 24.113 28.931 33.795
C 29.118 31.079 32.434
H 29.475 31.38  31.414
C 31.036 31.251 36.91 
H 32.064 31.497 37.257
N 26.179 29.557 36.363
C 25.973 29.275 37.681
C 24.431 28.925 38.013
H 24.511 28.017 38.616
C 23.923 28.703 36.544
H 23.076 29.33  36.305
C 25.119 29.182 35.653
C 23.565 27.263 36.235
H 23.444 27.096 35.157
H 24.33  26.629 36.739
H 22.596 27.094 36.676
C 23.665 30.036 38.762
H 23.248 30.714 38.031
H 24.403 30.59  39.306
C 22.588 29.4   39.724
H 22.89  28.381 39.824
H 22.775 29.859 40.685
C 21.125 29.283 39.389
O 20.278 29.877 40.035
O 20.855 28.491 38.277
N 27.184 30.179 33.615
C 25.964 29.668 33.35 
C 25.799 29.782 31.888
C 27.009 30.276 31.272
C 27.819 30.558 32.426
C 24.533 29.329 31.26 
H 24.397 28.261 31.156
H 23.822 29.799 31.893
H 24.349 29.801 30.326
C 27.388 30.472 29.821
H 28.046 31.338 29.681
C 26.886 29.885 28.762
H 26.261 29.    28.927
H 27.326 30.098 27.73 
N 29.753 31.142 34.77 
C 29.965 31.408 33.449
C 31.28  32.004 33.278
C 31.84  31.918 34.586
C 30.825 31.471 35.478
C 31.866 32.437 32.022
H 31.592 33.443 31.751
H 32.907 32.402 32.116
H 31.628 31.717 31.266
C 33.298 32.027 35.012
H 33.595 31.362 35.836
H 33.864 31.786 34.173
C 33.539 33.539 35.379
H 32.752 33.779 36.203
H 34.583 33.549 35.752
H 33.447 34.209 34.55 
N 28.875 30.222 37.313
C 30.097 30.687 37.783
C 30.23  30.475 39.189
C 29.063 29.85  39.547
C 28.249 29.744 38.418
C 31.484 30.781 40.004
H 31.737 31.77  39.676
H 31.202 30.897 41.042
H 32.271 30.095 39.759
C 28.39  29.229 40.709
O 28.766 29.087 41.899
C 26.942 28.818 40.178
H 26.158 29.312 40.767
C 26.656 27.331 40.348
O 27.165 26.392 39.768
O 25.648 27.112 41.26 
C 25.137 25.735 41.464
H 25.045 25.055 40.569
H 25.708 25.276 42.243
H 24.066 25.695 41.782
C 19.56  28.45  37.676
H 19.188 29.444 37.41 
H 18.777 28.198 38.349
C 19.703 27.42  36.625
H 19.55  26.441 37.015
C 19.79  27.535 35.283
C 19.99  28.865 34.514
H 20.162 29.691 35.133
H 20.813 28.768 33.814
H 19.122 29.198 33.973
C 20.007 26.265 34.436
H 20.276 25.439 35.088
H 20.927 26.349 33.88 
C 18.953 25.78  33.386
H 17.965 26.135 33.814
H 19.083 24.685 33.329
C 19.025 26.632 32.053
H 20.014 27.148 32.046
H 18.347 27.389 32.092
C 18.88  25.785 30.711
H 19.753 25.235 30.52 
C 19.037 26.826 29.545
H 19.945 27.449 29.59 
H 19.014 26.315 28.635
H 18.254 27.582 29.672
C 17.6   24.859 30.544
H 17.605 24.058 31.272
H 17.792 24.28  29.6  
C 16.2   25.562 30.618
H 16.325 26.589 30.955
H 15.556 25.164 31.455
C 15.403 25.491 29.27 
H 14.531 24.893 29.513
H 15.929 24.88  28.545
C 15.047 26.905 28.617
H 15.951 27.468 28.392
C 14.106 27.737 29.516
H 13.123 27.148 29.47 
H 14.576 27.847 30.472
H 13.978 28.694 29.043
C 14.285 26.723 27.211
H 13.362 26.226 27.261
H 14.756 25.967 26.557
C 14.231 27.864 26.279
H 14.415 27.592 25.191
H 15.063 28.606 26.551
C 12.902 28.688 26.357
H 12.461 28.58  27.379
H 12.243 28.382 25.491
C 13.084 30.228 26.277
H 13.746 30.51  27.11 
C 11.81  31.018 26.542
H 11.522 30.899 27.599
H 12.146 31.98  26.14 
H 10.97  30.745 25.952
C 13.735 30.621 24.958
H 13.857 31.727 24.866
H 14.714 30.235 24.883
H 13.155 30.297 24.11 
