137

Mg 18.956 25.022 29.524
C 22.142 25.318 30.87 
C 18.063 27.964 31.23 
H 17.884 28.909 31.664
C 15.767 24.496 28.717
H 14.728 24.327 28.613
C 19.796 21.746 28.593
H 19.974 20.732 28.334
N 19.962 26.472 30.796
C 21.258 26.382 31.142
C 21.732 27.678 31.82 
H 22.206 27.461 32.814
C 20.378 28.476 32.127
H 20.428 29.442 31.726
C 19.378 27.576 31.318
C 19.981 28.588 33.609
H 19.116 29.271 33.511
H 19.701 27.635 33.925
H 20.722 28.935 34.319
C 22.62  28.497 30.819
H 22.268 28.571 29.785
H 23.556 27.94  30.749
C 23.048 29.915 31.343
H 22.261 30.223 31.976
H 23.921 29.905 31.939
C 23.125 31.098 30.342
O 23.239 31.001 29.121
O 23.171 32.225 31.018
N 17.191 26.072 29.846
C 17.01  27.268 30.568
C 15.604 27.585 30.474
C 14.923 26.624 29.739
C 15.931 25.682 29.355
C 15.058 28.826 31.033
H 13.983 29.058 30.802
H 15.15  28.63  32.098
H 15.641 29.65  30.667
C 13.471 26.496 29.367
H 12.689 26.654 30.086
C 13.093 26.362 28.081
H 13.874 26.346 27.279
H 12.021 26.261 27.701
N 17.977 23.473 28.65 
C 16.629 23.479 28.386
C 16.268 22.217 27.804
C 17.423 21.403 27.737
C 18.438 22.187 28.352
C 14.831 21.824 27.499
H 14.436 21.466 28.413
H 14.467 22.822 27.11 
H 14.669 21.042 26.731
C 17.571 19.978 27.225
H 17.924 19.316 28.028
H 16.583 19.583 26.975
C 18.349 19.996 25.907
H 17.731 20.415 25.114
H 19.194 20.659 26.043
H 18.626 18.916 25.574
N 20.606 23.826 29.572
C 20.816 22.571 29.177
C 22.134 22.066 29.607
C 22.678 23.098 30.286
C 21.757 24.167 30.208
C 22.699 20.697 29.307
H 22.755 20.059 30.236
H 22.189 20.164 28.476
H 23.766 20.769 29.079
C 23.853 23.58  30.964
O 24.975 23.075 31.216
C 23.52  25.014 31.297
H 24.078 25.732 30.789
C 23.722 25.33  32.754
O 22.966 25.22  33.661
O 25.021 25.72  32.924
C 25.32  26.016 34.351
H 26.363 26.377 34.289
H 24.664 26.702 34.894
H 25.394 25.115 34.929
C 23.363 33.477 30.328
H 24.012 33.416 29.412
H 23.915 34.223 30.988
C 22.007 34.082 30.014
H 21.65  33.636 29.09 
C 21.394 35.121 30.512
C 21.877 36.018 31.644
H 21.373 35.603 32.519
H 22.974 35.932 31.805
H 21.514 37.096 31.542
C 20.128 35.619 29.836
H 19.935 34.918 29.064
H 20.361 36.549 29.294
C 18.879 35.576 30.675
H 19.034 35.006 31.617
H 18.102 35.134 30.102
C 18.525 37.028 31.196
H 17.604 37.384 30.644
H 19.288 37.682 30.842
C 18.217 37.132 32.742
H 19.087 36.88  33.378
C 16.954 36.228 33.07 
H 16.095 36.841 33.007
H 16.878 35.248 32.595
H 16.975 36.019 34.158
C 17.862 38.554 33.224
H 17.452 38.533 34.262
H 17.044 38.882 32.503
C 19.087 39.46  33.22 
H 20.049 38.883 33.047
H 19.232 39.945 34.236
C 18.883 40.675 32.25 
H 18.445 41.483 32.823
H 18.174 40.58  31.448
C 20.258 41.237 31.677
H 20.834 41.273 32.575
C 20.141 42.615 31.108
H 19.264 42.737 30.412
H 19.877 43.27  31.867
H 21.096 42.916 30.599
C 20.874 40.301 30.612
H 20.208 40.224 29.71 
H 20.781 39.3   31.031
C 22.388 40.533 30.212
H 23.033 41.009 30.946
H 22.427 41.153 29.366
C 23.009 39.265 29.635
H 23.153 39.372 28.595
H 22.375 38.443 29.822
C 24.469 38.921 30.254
H 24.313 38.856 31.313
C 25.611 39.944 29.951
H 26.628 39.637 30.311
H 25.632 39.931 28.831
H 25.401 40.977 30.148
C 24.867 37.55  29.751
H 24.938 37.554 28.663
H 25.792 37.287 30.135
H 24.167 36.807 30.097
