137

Mg 27.265 31.176 37.564
C 24.939 30.346 40.009
C 24.528 32.446 35.725
H 23.701 32.867 35.156
C 29.422 32.539 35.537
H 30.058 33.091 34.96 
C 29.732 29.98  39.633
H 30.508 29.492 40.225
N 24.989 31.4   37.85 
C 24.326 31.026 38.972
C 22.936 31.615 38.966
H 22.214 30.834 39.225
C 22.662 31.913 37.43 
H 22.219 32.886 37.239
C 24.133 31.904 36.926
C 21.837 30.831 36.745
H 21.809 29.828 37.225
H 20.779 31.164 36.639
H 22.212 30.556 35.803
C 22.816 32.843 39.84 
H 23.754 33.396 39.687
H 22.806 32.327 40.788
C 21.627 33.877 39.508
H 20.941 33.563 38.732
H 21.07  34.024 40.457
C 22.076 35.201 39.045
O 23.069 35.776 39.442
O 21.23  35.655 38.112
N 27.047 32.264 35.78 
C 25.805 32.645 35.233
C 26.143 33.366 34.059
C 27.564 33.27  33.909
C 28.09  32.721 35.123
C 25.157 34.077 33.098
H 24.679 34.97  33.576
H 25.728 34.37  32.209
H 24.355 33.31  32.848
C 28.379 34.022 32.836
H 28.138 35.077 32.609
C 29.464 33.577 32.215
H 29.879 32.559 32.376
H 29.998 34.178 31.484
N 29.346 31.277 37.572
C 30.042 31.862 36.588
C 31.497 31.652 36.77 
C 31.593 30.916 37.987
C 30.185 30.646 38.477
C 32.484 32.407 35.976
H 33.434 31.98  36.279
H 32.37  32.268 34.938
H 32.46  33.461 36.291
C 32.891 30.508 38.729
H 32.982 29.389 38.699
H 33.797 30.954 38.282
C 32.979 31.036 40.179
H 32.003 30.775 40.613
H 33.585 30.504 40.853
H 33.13  32.075 40.1  
N 27.36  30.264 39.387
C 28.452 29.832 40.086
C 28.085 29.328 41.388
C 26.689 29.438 41.365
C 26.288 30.    40.164
C 28.875 28.783 42.585
H 29.734 28.253 42.16 
H 29.308 29.55  43.217
H 28.295 28.096 43.227
C 25.517 29.35  42.244
O 25.336 29.012 43.398
C 24.385 29.921 41.358
H 24.078 30.852 41.87 
C 23.393 28.831 41.218
O 23.655 27.776 40.605
O 22.166 29.327 41.574
C 21.067 28.643 40.856
H 20.053 28.985 41.256
H 21.194 28.911 39.825
H 21.167 27.538 41.01 
C 21.464 37.    37.554
H 22.238 36.966 36.835
H 21.556 37.817 38.285
C 20.28 37.31 36.59
H 19.345 37.229 37.103
C 20.193 37.639 35.331
C 21.464 37.705 34.432
H 21.334 37.37  33.411
H 21.634 38.758 34.171
H 22.343 37.143 34.882
C 18.858 37.636 34.568
H 18.219 36.947 35.152
H 19.06  37.196 33.597
C 18.212 39.03  34.416
H 18.589 39.511 33.526
H 18.637 39.447 35.263
C 16.676 39.112 34.555
H 16.327 39.607 35.458
H 16.197 38.092 34.544
C 15.989 39.903 33.439
H 16.398 40.915 33.403
C 14.519 40.157 33.694
H 14.35  40.292 34.774
H 14.309 41.078 33.099
H 13.799 39.486 33.299
C 16.148 39.179 32.072
H 17.25  39.186 31.92 
H 15.727 39.937 31.421
C 15.517 37.822 31.808
H 15.001 37.861 30.85 
H 14.829 37.504 32.595
C 16.626 36.703 31.627
H 16.546 36.216 32.655
H 17.729 37.108 31.575
C 16.4   35.511 30.589
H 15.407 35.245 30.718
C 17.236 34.287 30.964
H 16.845 33.399 30.401
H 18.309 34.382 30.843
H 17.152 34.071 32.011
C 16.645 35.985 29.163
H 17.727 36.348 29.122
H 16.103 36.912 29.243
C 16.077 35.11  28.028
H 15.406 35.764 27.47 
H 15.593 34.189 28.391
C 17.173 34.338 27.196
H 18.114 34.699 27.57 
H 17.131 34.691 26.099
C 17.292 32.758 27.069
H 17.758 32.409 28.004
C 18.276 32.443 25.864
H 18.496 31.336 25.825
H 17.7   32.701 25.016
H 19.173 33.053 25.969
C 15.988 32.061 26.912
H 15.425 32.576 26.117
H 16.198 31.032 26.5  
H 15.498 32.146 27.874
