137

Mg 24.178 31.705 29.915
C 23.123 28.431 30.078
C 20.857 32.62  30.02 
H 19.855 32.925 29.899
C 25.122 35.008 30.025
H 25.418 36.025 30.055
C 27.403 30.524 29.837
H 28.486 30.265 29.755
N 22.251 30.59  30.08 
C 22.025 29.266 30.145
C 20.541 28.9   30.41 
H 20.165 28.29  29.609
C 19.839 30.307 30.233
H 19.366 30.808 31.104
C 21.045 31.227 30.087
C 18.882 30.271 29.056
H 18.355 31.255 29.073
H 19.444 30.259 28.137
H 18.207 29.46  29.135
C 20.368 28.299 31.811
H 20.788 28.977 32.547
H 20.902 27.399 31.91 
C 18.85  28.001 32.232
H 18.211 28.151 31.34 
H 18.772 26.959 32.561
C 18.227 28.857 33.341
O 18.33  28.623 34.546
O 17.598 29.963 32.822
N 23.166 33.585 29.907
C 21.814 33.755 29.977
C 21.47  35.157 30.332
C 22.673 35.792 30.277
C 23.714 34.812 30.029
C 20.167 35.752 30.511
H 19.978 36.144 29.513
H 19.298 35.186 30.832
H 20.35  36.677 31.087
C 22.96  37.258 30.272
H 23.982 37.523 30.435
C 22.148 38.283 29.984
H 21.073 38.153 29.77 
H 22.548 39.278 30.025
N 25.911 32.552 29.91 
C 26.175 33.97  29.891
C 27.587 34.182 29.69 
C 28.213 32.932 29.703
C 27.167 31.886 29.929
C 28.25  35.496 29.636
H 29.018 35.464 28.892
H 27.519 36.186 29.281
H 28.508 35.676 30.722
C 29.708 32.693 29.639
H 29.9   31.93  28.882
H 30.294 33.561 29.287
C 30.341 32.197 30.958
H 31.273 31.65  30.749
H 30.615 33.056 31.64 
H 29.669 31.508 31.487
N 25.112 29.878 29.843
C 26.472 29.573 29.821
C 26.612 28.187 29.697
C 25.374 27.694 29.807
C 24.437 28.793 29.927
C 27.956 27.487 29.632
H 28.341 27.332 30.668
H 27.632 26.572 29.202
H 28.733 27.902 29.07 
C 24.647 26.487 29.852
O 25.058 25.357 29.811
C 23.14  26.945 30.047
H 22.955 26.548 31.014
C 22.346 26.314 28.979
O 22.559 26.431 27.77 
O 21.443 25.442 29.538
C 20.683 24.693 28.572
H 20.51  23.742 28.984
H 19.745 25.187 28.419
H 21.071 24.453 27.639
C 16.971 30.927 33.676
H 17.689 31.429 34.244
H 16.351 30.404 34.424
C 16.168 31.864 32.796
H 15.422 31.328 32.144
C 16.181 33.163 32.671
C 16.976 34.144 33.401
H 16.413 34.871 34.049
H 17.695 33.621 34.065
H 17.468 34.62  32.617
C 15.119 33.82  31.808
H 14.521 33.127 31.184
H 15.644 34.43  31.06 
C 14.053 34.655 32.667
H 14.379 34.961 33.637
H 13.186 33.988 32.718
C 13.533 35.918 31.896
H 12.461 35.83  31.811
H 13.94  36.083 30.878
C 13.67  37.225 32.692
H 13.11  37.112 33.644
C 13.026 38.471 32.043
H 13.341 39.432 32.48 
H 13.594 38.495 31.042
H 11.989 38.396 31.809
C 15.142 37.549 33.1  
H 15.626 36.769 33.717
H 15.23  38.352 33.776
C 16.115 37.645 31.912
H 15.645 37.546 30.941
H 16.894 36.892 31.951
C 16.784 38.993 31.823
H 17.767 38.799 32.217
H 16.29  39.706 32.489
C 16.995 39.729 30.455
H 16.106 39.625 29.981
C 17.839 38.981 29.458
H 18.865 39.23  29.559
H 17.682 37.896 29.604
H 17.563 39.244 28.461
C 17.342 41.198 30.58 
H 17.472 41.569 29.587
H 18.317 41.065 31.061
C 16.313 42.18  31.222
H 15.411 41.723 31.43 
H 16.173 42.97  30.517
C 16.859 42.732 32.543
H 17.717 42.119 32.775
H 16.132 42.557 33.327
C 17.076 44.282 32.533
H 16.098 44.77  32.28 
C 18.006 44.8   31.437
H 18.885 44.093 31.409
H 17.504 44.891 30.416
H 18.288 45.832 31.778
C 17.452 44.763 33.993
H 17.367 45.879 34.138
H 16.742 44.345 34.756
H 18.465 44.547 34.094
