137

Mg 20.341 26.835 29.84 
C 23.36  25.592 31.028
C 20.078 28.747 32.682
H 20.017 29.269 33.658
C 17.859 28.574 28.383
H 17.117 29.035 27.783
C 20.74  24.916 27.041
H 20.908 24.337 26.095
N 21.624 27.207 31.618
C 22.839 26.565 31.897
C 23.468 27.031 33.192
H 23.567 26.167 33.789
C 22.287 27.982 33.739
H 22.733 28.997 33.857
C 21.257 27.991 32.68 
C 21.754 27.509 35.125
H 22.537 27.494 35.86 
H 21.01  28.126 35.554
H 21.234 26.542 35.105
C 24.9   27.668 32.944
H 24.743 28.4   32.217
H 25.581 26.887 32.593
C 25.474 28.425 34.173
H 24.721 28.363 34.936
H 26.364 27.764 34.384
C 25.891 29.873 34.045
O 26.908 30.3   34.684
O 25.094 30.59  33.212
N 19.132 28.383 30.42 
C 19.051 28.998 31.671
C 17.978 30.002 31.783
C 17.392 30.002 30.476
C 18.178 29.038 29.7  
C 17.753 30.854 32.938
H 18.64  31.077 33.555
H 17.456 31.782 32.545
H 16.921 30.459 33.512
C 16.354 30.845 29.9  
H 16.373 30.772 28.796
C 15.39  31.58  30.583
H 15.319 31.598 31.706
H 14.56  31.956 30.053
N 19.445 26.737 28.049
C 18.41  27.531 27.621
C 17.939 27.113 26.294
C 18.66  26.017 25.963
C 19.677 25.856 27.03 
C 16.753 27.782 25.532
H 16.038 28.116 26.219
H 16.971 28.714 25.026
H 16.333 27.038 24.865
C 18.657 25.207 24.662
H 17.904 25.676 24.014
H 19.682 25.314 24.196
C 18.311 23.748 24.917
H 17.317 23.471 25.467
H 18.256 23.41  23.918
H 19.135 23.289 25.479
N 21.627 25.454 29.198
C 21.703 24.782 28.064
C 22.783 23.863 28.029
C 23.512 24.228 29.148
C 22.772 25.188 29.862
C 23.091 22.944 26.874
H 23.087 23.583 25.98 
H 24.047 22.443 26.986
H 22.222 22.244 26.75 
C 24.688 23.884 29.882
O 25.597 23.132 29.538
C 24.699 24.798 31.145
H 25.572 25.475 31.106
C 24.769 23.786 32.27 
O 23.794 23.108 32.562
O 26.034 23.593 32.809
C 25.984 22.486 33.819
H 25.953 21.557 33.278
H 26.985 22.535 34.343
H 25.224 22.542 34.596
C 25.389 31.983 33.151
H 26.07  32.104 32.298
H 25.674 32.495 34.091
C 23.966 32.423 32.817
H 23.108 31.771 33.08 
C 23.758 33.579 32.155
C 24.813 34.508 31.6  
H 24.447 35.534 31.712
H 25.749 34.276 32.086
H 24.903 34.395 30.511
C 22.415 33.898 31.655
H 21.76  32.999 31.552
H 22.538 34.128 30.56 
C 21.771 35.06  32.453
H 22.475 35.239 33.284
H 20.718 34.736 32.773
C 21.61  36.352 31.585
H 22.238 36.234 30.693
H 22.21  37.175 32.027
C 20.186 36.765 31.202
H 19.668 36.744 32.144
C 19.463 35.745 30.268
H 19.07  34.915 30.853
H 18.558 36.202 29.817
H 20.088 35.416 29.47 
C 19.978 38.139 30.462
H 18.886 38.381 30.474
H 20.427 38.108 29.427
C 20.625 39.391 31.086
H 21.417 39.892 30.465
H 21.113 39.16  32.039
C 19.667 40.495 31.501
H 19.812 40.701 32.543
H 18.608 40.153 31.385
C 19.906 41.833 30.791
H 20.96  42.086 31.015
C 19.026 42.943 31.501
H 17.996 42.76  31.331
H 19.168 42.913 32.548
H 19.215 43.954 31.189
C 19.6   41.689 29.271
H 18.64  41.189 29.176
H 20.341 41.035 28.853
C 19.566 42.96  28.427
H 20.404 42.987 27.713
H 19.634 43.809 29.109
C 18.28  42.973 27.592
H 17.607 42.131 27.796
H 18.37  42.896 26.449
C 17.458 44.372 27.809
H 17.243 44.502 28.851
C 16.096 44.365 27.147
H 15.615 45.253 27.353
H 16.126 44.284 26.063
H 15.519 43.514 27.484
C 18.271 45.628 27.198
H 18.449 45.45  26.186
H 17.661 46.513 27.221
H 19.19  45.903 27.693
