137

Mg 29.698 29.06  42.126
C 26.424 30.257 42.907
C 28.568 28.319 38.971
H 28.301 27.889 38.019
C 32.792 27.815 41.445
H 33.814 27.556 41.152
C 30.495 29.342 45.536
H 30.754 29.387 46.616
N 27.865 29.382 41.028
C 26.658 29.893 41.562
C 25.528 29.859 40.519
H 24.7   29.268 40.992
C 26.201 29.058 39.337
H 26.04  29.604 38.388
C 27.638 28.941 39.765
C 25.566 27.687 39.027
H 25.696 27.341 37.969
H 25.835 26.921 39.693
H 24.512 27.911 38.974
C 25.044 31.312 40.176
H 25.932 31.83  39.836
H 24.806 31.692 41.184
C 23.923 31.379 39.151
H 23.413 30.411 39.276
H 23.221 32.198 39.354
C 24.279 31.5   37.687
O 24.665 32.477 37.155
O 24.073 30.331 37.042
N 30.604 28.442 40.43 
C 29.975 28.153 39.252
C 30.953 27.544 38.355
C 32.159 27.434 39.004
C 31.867 27.92  40.353
C 30.667 27.102 36.976
H 29.654 26.781 36.811
H 30.9   27.872 36.25 
H 31.334 26.227 36.754
C 33.482 26.851 38.523
H 34.039 26.374 39.306
C 34.034 27.023 37.282
H 33.536 27.593 36.432
H 34.994 26.579 37.013
N 31.407 28.66  43.283
C 32.567 28.19  42.789
C 33.484 27.996 43.894
C 32.835 28.459 44.988
C 31.499 28.898 44.654
C 34.827 27.576 43.751
H 35.293 27.731 42.773
H 35.425 28.236 44.375
H 35.024 26.533 44.107
C 33.485 28.436 46.373
H 32.891 27.881 47.08 
H 34.396 27.925 46.354
C 33.74  29.841 46.949
H 34.425 30.429 46.348
H 32.767 30.371 47.043
H 34.105 29.766 48.011
N 28.722 29.598 43.851
C 29.216 29.723 45.152
C 28.211 30.305 45.94 
C 27.093 30.463 45.162
C 27.436 30.089 43.881
C 28.261 30.658 47.321
H 27.707 29.878 47.868
H 29.262 30.713 47.64 
H 27.829 31.629 47.6  
C 25.737 30.935 45.129
O 25.081 31.335 46.091
C 25.204 30.723 43.692
H 25.025 31.794 43.396
C 24.098 29.714 43.736
O 24.08  28.831 44.59 
O 23.241 29.918 42.646
C 22.211 28.945 42.48 
H 22.547 27.876 42.447
H 21.555 29.045 43.304
H 21.607 29.185 41.611
C 24.103 30.389 35.527
H 25.049 30.662 35.101
H 23.318 31.118 35.241
C 23.747 28.961 35.176
H 24.003 28.192 35.906
C 23.191 28.622 33.994
C 22.763 29.57  32.932
H 23.444 29.575 32.071
H 21.762 29.389 32.558
H 22.644 30.572 33.366
C 23.205 27.136 33.608
H 23.916 26.488 34.145
H 23.6   27.09  32.629
C 21.803 26.529 33.832
H 21.208 27.41  34.126
H 21.649 25.716 34.598
C 21.145 26.145 32.412
H 21.875 25.963 31.656
H 20.507 26.98  32.12 
C 20.307 24.793 32.292
H 20.929 23.961 32.64 
C 19.882 24.498 30.823
H 19.34  23.569 30.819
H 19.201 25.23  30.388
H 20.735 24.495 30.119
C 19.077 24.874 33.255
H 19.391 25.128 34.267
H 18.726 23.816 33.313
C 17.927 25.859 32.838
H 18.016 26.219 31.831
H 17.917 26.865 33.342
C 16.556 25.312 33.002
H 16.09  26.015 33.737
H 16.562 24.263 33.295
C 15.61  25.378 31.854
H 16.139 24.907 30.986
C 15.358 26.87  31.621
H 15.033 27.029 30.558
H 14.554 27.171 32.308
H 16.227 27.498 31.782
C 14.27  24.654 32.203
H 13.876 25.198 33.1  
H 14.425 23.614 32.506
C 13.234 24.755 31.108
H 12.958 23.757 30.944
H 13.694 25.09  30.163
C 11.979 25.653 31.391
H 11.644 26.203 30.443
H 12.13  26.501 32.132
C 10.611 24.909 31.659
H 10.325 24.353 30.808
C  9.312 25.817 31.987
H  8.812 26.124 31.109
H  8.568 25.237 32.589
H  9.538 26.754 32.628
C 10.827 24.102 33.009
H  9.863 23.589 33.23 
H 11.587 23.268 32.973
H 11.126 24.854 33.825
