137

Mg 28.557 29.405 32.355
C 26.79  26.694 31.231
C 29.397 30.079 29.027
H 29.626 30.211 27.968
C 30.467 31.901 33.432
H 31.015 32.678 33.923
C 28.178 28.179 35.54 
H 27.976 27.674 36.473
N 28.23  28.447 30.4  
C 27.448 27.391 30.173
C 27.394 27.039 28.714
H 27.788 26.04  28.534
C 28.34  28.047 28.016
H 27.766 28.597 27.209
C 28.733 28.929 29.222
C 29.521 27.404 27.296
H 30.251 26.891 27.975
H 29.287 26.799 26.462
H 30.078 28.235 26.893
C 26.002 26.973 28.047
H 25.543 27.948 28.15 
H 25.343 26.29  28.584
C 26.05  26.482 26.613
H 25.813 27.273 25.97 
H 27.115 26.252 26.435
C 25.404 25.211 26.216
O 26.03  24.278 25.718
O 24.101 25.192 26.703
N 29.617 30.87  31.4  
C 29.883 30.945 30.01 
C 30.705 32.139 29.793
C 30.979 32.692 31.03 
C 30.298 31.889 32.042
C 31.178 32.489 28.398
H 31.2   33.582 28.375
H 32.304 32.136 28.251
H 30.448 32.126 27.618
C 31.75  33.867 31.356
H 31.983 33.974 32.44 
C 32.297 34.796 30.542
H 32.157 34.822 29.484
H 32.832 35.666 31.038
N 29.206 29.928 34.215
C 30.021 31.05  34.464
C 30.341 31.052 35.915
C 29.731 29.917 36.461
C 28.933 29.287 35.435
C 31.208 32.068 36.679
H 32.047 31.574 37.14 
H 31.703 32.784 36.057
H 30.63  32.586 37.357
C 29.773 29.46  37.921
H 29.956 28.378 37.925
H 30.599 30.031 38.465
C 28.533 29.529 38.804
H 28.778 29.225 39.78 
H 28.285 30.644 38.744
H 27.719 29.008 38.359
N 27.699 27.738 33.227
C 27.536 27.442 34.539
C 26.611 26.308 34.74 
C 26.326 25.961 33.423
C 26.981 26.874 32.558
C 26.183 25.61  36.017
H 26.752 24.653 36.002
H 26.346 26.319 36.873
H 25.118 25.338 36.006
C 25.559 25.081 32.598
O 24.821 24.186 32.906
C 25.91  25.466 31.119
H 24.929 25.729 30.723
C 26.738 24.313 30.612
O 27.593 23.74  31.254
O 26.397 23.943 29.384
C 27.21  22.838 28.807
H 27.151 21.946 29.47 
H 27.019 22.611 27.751
H 28.242 23.034 28.788
C 23.534 23.906 26.602
H 24.123 23.205 27.152
H 23.42  23.592 25.528
C 22.137 24.111 27.167
H 21.398 24.104 26.406
C 21.737 24.217 28.493
C 22.615 23.914 29.677
H 22.182 23.186 30.396
H 23.621 23.584 29.304
H 22.777 24.809 30.223
C 20.343 24.549 28.783
H 19.874 25.151 27.98 
H 20.383 25.181 29.687
C 19.423 23.374 29.256
H 19.015 23.363 30.263
H 20.046 22.47  29.234
C 18.216 23.138 28.422
H 18.397 23.585 27.369
H 17.284 23.719 28.759
C 17.79  21.547 28.237
H 18.626 21.08  27.634
C 16.57  21.301 27.394
H 15.666 21.781 27.787
H 16.726 21.639 26.417
H 16.452 20.236 27.429
C 17.569 20.928 29.65 
H 18.516 20.898 30.236
H 17.353 19.908 29.449
C 16.305 21.5   30.468
H 15.551 20.719 30.675
H 15.839 22.327 29.982
C 16.793 22.087 31.828
H 17.802 22.301 31.638
H 16.723 21.406 32.639
C 16.189 23.355 32.317
H 16.321 24.155 31.542
C 17.057 23.799 33.53 
H 16.731 23.209 34.346
H 18.127 23.721 33.407
H 16.864 24.885 33.641
C 14.603 23.184 32.51 
H 14.505 22.22  32.94 
H 14.147 23.149 31.517
C 13.777 24.234 33.295
H 13.177 24.727 32.489
H 14.516 24.905 33.7  
C 12.827 23.647 34.337
H 12.786 22.591 33.992
H 11.812 24.06  34.282
C 13.221 23.759 35.846
H 14.276 23.651 35.904
C 12.493 22.659 36.693
H 12.906 22.55  37.668
H 11.428 22.979 36.651
H 12.621 21.613 36.165
C 12.875 25.148 36.443
H 11.799 25.267 36.588
H 13.28  25.104 37.413
H 13.346 25.939 35.887
