137

Mg 25.589 32.971 33.436
C 24.501 31.813 36.436
C 22.336 33.329 32.43 
H 21.282 33.337 31.998
C 26.614 34.066 30.446
H 26.905 34.442 29.474
C 28.837 32.753 34.544
H 29.86  32.425 34.826
N 23.675 32.67  34.322
C 23.451 32.233 35.599
C 21.968 32.244 36.016
H 21.739 31.245 36.54 
C 21.261 32.464 34.629
H 20.462 33.233 34.695
C 22.462 32.871 33.719
C 20.586 31.234 34.048
H 21.229 30.269 34.103
H 19.756 30.934 34.638
H 20.222 31.414 33.034
C 21.594 33.311 37.078
H 21.633 34.293 36.655
H 22.449 33.26  37.741
C 20.305 33.027 37.905
H 19.571 32.402 37.366
H 20.59  32.448 38.783
C 19.474 34.178 38.386
O 19.156 34.467 39.524
O 19.242 35.004 37.291
N 24.616 33.743 31.734
C 23.258 33.743 31.482
C 22.953 34.28  30.138
C 24.187 34.49  29.527
C 25.236 34.116 30.542
C 21.6   34.63  29.503
H 20.743 34.297 30.113
H 21.628 35.722 29.348
H 21.513 34.002 28.65 
C 24.393 34.924 28.154
H 25.265 35.616 28.006
C 23.552 34.686 27.138
H 22.775 33.928 27.211
H 23.712 35.206 26.19 
N 27.378 33.271 32.62 
C 27.631 33.665 31.313
C 29.055 33.642 31.   
C 29.674 33.211 32.212
C 28.581 33.065 33.183
C 29.665 34.067 29.722
H 30.397 33.342 29.295
H 29.019 34.032 28.9  
H 30.066 35.086 29.843
C 31.142 33.02  32.393
H 31.31  32.14  33.031
H 31.664 32.899 31.485
C 31.821 34.188 33.082
H 32.835 34.004 33.206
H 31.628 35.061 32.398
H 31.374 34.334 34.075
N 26.56  32.408 35.124
C 27.889 32.431 35.482
C 28.097 31.941 36.808
C 26.738 31.711 37.232
C 25.916 31.991 36.175
C 29.384 32.028 37.616
H 29.799 33.055 37.644
H 29.035 31.757 38.616
H 30.165 31.337 37.304
C 25.91  31.263 38.304
O 26.222 30.867 39.399
C 24.502 31.365 37.875
H 24.127 32.218 38.428
C 23.806 30.087 38.164
O 23.829 29.093 37.443
O 22.892 30.31  39.194
C 22.078 29.157 39.541
H 21.324 29.034 38.76 
H 22.682 28.241 39.614
H 21.476 29.189 40.46 
C 18.532 36.227 37.565
H 19.117 36.903 38.076
H 17.684 36.093 38.183
C 17.971 36.785 36.296
H 18.831 37.04  35.645
C 16.719 36.987 35.838
C 15.461 36.563 36.667
H 14.553 37.132 36.381
H 15.158 35.615 36.315
H 15.617 36.522 37.802
C 16.354 37.42  34.398
H 17.188 37.734 33.812
H 15.923 38.461 34.687
C 15.51  36.424 33.541
H 15.304 35.5   34.108
H 16.156 36.175 32.795
C 14.171 37.065 33.124
H 14.207 38.103 33.503
H 13.331 36.616 33.717
C 13.791 37.017 31.596
H 14.692 37.194 30.989
C 12.837 38.139 31.216
H 12.682 38.224 30.162
H 11.932 37.992 31.793
H 13.345 39.072 31.528
C 13.355 35.606 30.974
H 14.268 35.002 30.868
H 13.045 35.775 30.005
C 12.278 34.856 31.752
H 11.604 34.436 31.008
H 11.629 35.576 32.268
C 12.774 33.784 32.714
H 12.84  34.19  33.671
H 13.786 33.592 32.314
C 11.843 32.517 32.796
H 10.866 32.908 32.805
C 12.111 31.692 34.142
H 11.394 30.877 34.204
H 13.172 31.411 34.042
H 11.946 32.442 34.935
C 11.945 31.501 31.585
H 12.847 30.86  31.639
H 12.03  32.133 30.691
C 10.753 30.54  31.56 
H 10.    30.778 32.283
H 11.103 29.538 31.734
C 10.035 30.47  30.153
H 10.445 29.618 29.552
H 10.209 31.459 29.646
C  8.429 30.227 30.308
H  8.245 29.469 31.061
C  7.696 29.627 29.012
H  6.692 29.18  29.28 
H  7.514 30.327 28.274
H  8.298 28.785 28.683
C  7.594 31.403 30.671
H  6.543 31.107 30.661
H  7.797 31.636 31.718
H  7.844 32.241 30.056
