137

Mg 35.95  33.015 36.193
C 32.64  33.388 36.104
C 35.707 30.047 34.347
H 35.63  29.084 33.977
C 39.339 33.003 35.754
H 40.435 32.915 35.555
C 36.268 35.904 38.242
H 36.484 36.759 38.924
N 34.369 31.995 35.119
C 33.072 32.295 35.293
C 32.159 31.338 34.543
H 31.25  31.048 35.243
C 33.149 30.169 34.201
H 33.201 29.924 33.165
C 34.501 30.707 34.61 
C 32.813 28.812 35.021
H 31.857 28.447 34.718
H 33.462 27.981 34.657
H 32.976 29.087 36.081
C 31.489 31.999 33.291
H 32.267 32.573 32.789
H 30.806 32.758 33.68 
C 30.833 30.953 32.237
H 31.457 30.771 31.343
H 30.633 29.976 32.703
C 29.449 31.379 31.73 
O 29.153 31.613 30.571
O 28.471 31.349 32.696
N 37.263 31.874 35.144
C 36.931 30.639 34.522
C 38.169 30.004 34.018
C 39.253 30.808 34.392
C 38.65  31.963 35.083
C 38.265 28.687 33.25 
H 39.231 28.415 32.905
H 37.768 27.899 33.824
H 37.707 28.879 32.297
C 40.662 30.678 34.051
H 41.369 30.738 34.854
C 41.038 30.38  32.756
H 40.314 30.275 31.93 
H 42.12  30.223 32.537
N 37.475 34.174 36.95 
C 38.835 33.991 36.589
C 39.662 34.935 37.334
C 38.746 35.792 37.994
C 37.445 35.317 37.719
C 41.142 35.062 37.063
H 41.233 35.521 36.09 
H 41.785 35.591 37.759
H 41.609 34.076 37.011
C 39.122 37.113 38.706
H 38.65  37.076 39.672
H 40.222 37.196 38.731
C 38.702 38.442 37.998
H 37.814 38.251 37.473
H 38.7   39.186 38.699
H 39.513 38.708 37.245
N 34.758 34.351 37.061
C 34.938 35.453 37.932
C 33.634 35.968 38.335
C 32.725 35.236 37.631
C 33.433 34.248 36.929
C 33.551 37.146 39.277
H 32.585 37.601 39.145
H 33.43  36.718 40.29 
H 34.406 37.835 39.257
C 31.33  35.019 37.455
O 30.351 35.534 37.966
C 31.215 33.85  36.5  
H 30.621 34.315 35.689
C 30.281 32.848 37.094
O 30.602 31.895 37.82 
O 29.028 33.002 36.622
C 27.992 32.277 37.319
H 28.031 32.598 38.359
H 27.007 32.466 36.883
H 28.164 31.173 37.443
C 27.167 31.846 32.226
H 26.764 31.157 31.514
H 27.246 32.825 31.812
C 26.139 31.955 33.36 
H 26.526 32.437 34.246
C 24.848 31.668 33.422
C 24.07  30.901 32.416
H 23.51  31.631 31.891
H 24.749 30.316 31.801
H 23.419 30.259 33.072
C 24.08  32.219 34.656
H 24.792 32.799 35.277
H 23.774 31.394 35.265
C 22.961 33.266 34.373
H 23.216 33.687 33.409
H 22.964 33.996 35.164
C 21.556 32.686 34.281
H 21.025 32.652 35.231
H 21.782 31.668 33.985
C 20.49  33.247 33.292
H 21.023 33.214 32.313
C 20.048 34.747 33.529
H 19.419 34.908 34.412
H 20.915 35.379 33.543
H 19.418 35.057 32.675
C 19.187 32.37  33.107
H 19.46  31.351 32.665
H 18.551 32.836 32.357
C 18.344 32.066 34.323
H 17.296 32.272 33.988
H 18.64  32.866 35.021
C 18.371 30.688 35.05 
H 19.173 30.028 34.678
H 17.372 30.272 34.77 
C 18.321 30.762 36.556
H 17.468 31.271 37.073
C 19.509 31.505 37.204
H 20.451 31.075 36.776
H 19.694 32.504 36.919
H 19.499 31.441 38.317
C 18.37  29.278 37.073
H 18.71  29.412 38.105
H 19.11  28.716 36.538
C 16.996 28.618 36.943
H 16.256 29.408 36.811
H 16.73  27.989 37.822
C 16.894 27.781 35.601
H 17.725 28.016 34.98 
H 16.015 28.226 35.162
C 16.794 26.267 35.703
H 15.911 26.039 36.234
C 17.993 25.59  36.339
H 17.843 24.513 36.274
H 18.905 25.943 35.849
H 18.031 25.927 37.355
C 16.621 25.7   34.228
H 16.158 24.676 34.195
H 16.032 26.431 33.594
H 17.529 25.712 33.671
