137

Mg 35.74  31.298 35.32 
C 32.585 31.16  34.129
C 36.527 28.457 33.639
H 36.651 27.471 33.108
C 38.917 31.481 36.6  
H 39.864 31.655 37.064
C 35.002 34.448 36.826
H 34.845 35.428 37.292
N 34.73  30.081 34.077
C 33.373 30.151 33.695
C 32.969 28.993 32.644
H 32.075 28.532 33.03 
C 34.148 28.048 32.823
H 34.494 27.772 31.879
C 35.209 28.95  33.55 
C 33.841 26.712 33.566
H 33.235 26.118 32.939
H 34.793 26.152 33.725
H 33.383 26.781 34.555
C 32.663 29.516 31.17 
H 33.574 29.813 30.635
H 32.119 30.462 31.247
C 31.888 28.555 30.375
H 32.399 28.341 29.4  
H 31.714 27.594 30.849
C 30.452 28.929 29.902
O 30.113 28.939 28.729
O 29.604 29.308 30.91 
N 37.432 30.14  35.203
C 37.55  28.965 34.494
C 38.907 28.384 34.697
C 39.56  29.259 35.542
C 38.644 30.327 35.816
C 39.379 27.07  34.151
H 38.568 26.687 33.519
H 40.302 27.113 33.563
H 39.637 26.328 34.934
C 40.931 29.235 36.108
H 41.322 30.175 36.458
C 41.755 28.184 36.145
H 41.53  27.173 35.794
H 42.764 28.245 36.635
N 36.778 32.718 36.424
C 38.143 32.58  36.823
C 38.459 33.744 37.621
C 37.318 34.539 37.718
C 36.279 33.917 36.97 
C 39.826 34.126 38.205
H 40.589 33.921 37.467
H 39.791 35.227 38.382
H 39.828 33.637 39.221
C 37.214 35.879 38.361
H 36.244 35.974 38.955
H 37.952 36.042 39.121
C 37.236 37.031 37.374
H 36.478 36.944 36.611
H 37.092 38.052 37.922
H 38.164 37.009 36.897
N 34.103 32.561 35.469
C 33.938 33.792 36.124
C 32.555 34.245 35.881
C 31.94  33.103 35.262
C 32.961 32.247 34.913
C 32.006 35.592 36.085
H 31.616 35.874 35.181
H 31.316 35.383 36.831
H 32.707 36.312 36.342
C 30.671 32.675 34.629
O 29.587 33.172 34.588
C 31.048 31.345 33.932
H 30.858 31.462 32.919
C 30.188 30.301 34.613
O 29.904 30.266 35.809
O 29.718 29.319 33.756
C 28.934 28.255 34.396
H 28.002 28.671 34.793
H 28.586 27.525 33.678
H 29.465 27.657 35.169
C 28.251 29.816 30.465
H 27.604 29.027 30.07 
H 28.335 30.567 29.674
C 27.787 30.687 31.687
H 28.538 31.439 31.919
C 26.707 30.605 32.555
C 25.65  29.46  32.617
H 26.049 28.519 32.268
H 25.348 29.292 33.621
H 24.876 29.703 31.874
C 26.527 31.657 33.618
H 27.331 32.418 33.593
H 26.471 31.17  34.587
C 25.307 32.519 33.403
H 24.828 32.135 32.48 
H 25.643 33.593 33.276
C 24.31  32.405 34.556
H 23.879 33.435 34.719
H 24.871 32.098 35.465
C 23.097 31.387 34.279
H 23.639 30.459 34.011
C 22.104 31.832 33.12 
H 21.808 32.839 33.226
H 22.623 31.785 32.109
H 21.255 31.155 33.068
C 22.315 30.977 35.623
H 21.527 31.684 35.829
H 22.976 30.904 36.49 
C 21.517 29.64  35.681
H 21.726 29.027 36.512
H 22.023 29.062 34.94 
C 20.035 29.653 35.28 
H 19.477 28.854 35.809
H 20.032 29.371 34.215
C 19.126 30.866 35.509
H 19.622 31.693 35.034
C 18.955 31.143 37.1  
H 18.858 30.302 37.727
H 19.823 31.705 37.354
H 18.045 31.744 37.263
C 17.746 30.648 34.984
H 17.239 31.609 35.223
H 17.274 29.798 35.456
C 17.704 30.703 33.385
H 18.734 31.026 33.146
H 16.972 31.426 32.955
C 17.524 29.326 32.552
H 17.432 28.489 33.192
H 18.401 29.148 31.963
C 16.29  29.351 31.529
H 16.339 30.155 30.814
C 14.969 29.504 32.369
H 14.082 29.64  31.682
H 14.806 28.672 33.072
H 15.065 30.407 32.92 
C 16.288 28.032 30.777
H 15.407 27.906 30.197
H 17.178 27.95  30.165
H 16.128 27.207 31.523
