137

Mg 23.09  25.225 38.926
C 20.795 22.688 38.888
C 24.619 23.817 36.145
H 25.138 23.312 35.264
C 25.582 27.503 39.248
H 26.324 28.237 39.335
C 21.957 25.993 42.174
H 21.645 26.161 43.221
N 22.706 23.515 37.634
C 21.629 22.625 37.769
C 21.519 21.715 36.473
H 21.495 20.711 36.738
C 22.822 21.985 35.704
H 22.558 22.422 34.803
C 23.459 23.144 36.602
C 23.781 20.71  35.417
H 24.282 20.332 36.365
H 23.156 19.961 34.896
H 24.492 21.097 34.722
C 20.201 21.872 35.743
H 20.124 22.926 35.434
H 19.489 21.554 36.452
C 20.012 20.963 34.494
H 20.763 20.289 34.656
H 19.008 20.591 34.508
C 20.329 21.561 33.11 
O 20.908 22.609 32.912
O 19.887 20.663 32.134
N 24.788 25.696 37.8  
C 25.23  24.992 36.724
C 26.505 25.539 36.355
C 26.77  26.551 37.263
C 25.719 26.547 38.213
C 27.441 24.939 35.319
H 28.202 24.427 35.95 
H 27.024 24.137 34.648
H 27.971 25.599 34.691
C 27.929 27.361 37.52 
H 28.273 27.418 38.546
C 28.607 28.156 36.654
H 28.309 28.122 35.55 
H 29.451 28.811 36.973
N 23.598 26.61  40.374
C 24.563 27.515 40.248
C 24.568 28.396 41.348
C 23.595 27.881 42.184
C 23.038 26.753 41.605
C 25.507 29.607 41.644
H 26.236 29.47  42.379
H 26.104 29.876 40.733
H 24.877 30.457 41.919
C 23.025 28.534 43.467
H 22.929 27.839 44.31 
H 23.532 29.427 43.8  
C 21.636 29.213 43.211
H 20.973 28.384 42.887
H 21.155 29.675 44.048
H 21.651 29.884 42.407
N 21.65  24.639 40.275
C 21.398 24.934 41.512
C 20.224 24.212 42.079
C 20.013 23.285 41.02 
C 20.952 23.53  40.004
C 19.453 24.39  43.394
H 19.251 25.393 43.714
H 18.431 23.918 43.282
H 19.811 23.833 44.307
C 19.104 22.226 40.628
O 18.114 21.746 41.119
C 19.636 21.708 39.229
H 18.779 21.644 38.563
C 20.239 20.314 39.469
O 20.938 19.892 40.379
O 19.725 19.419 38.509
C 20.093 18.056 38.643
H 19.385 17.467 38.106
H 21.112 17.975 38.178
H 20.076 17.581 39.648
C 20.02  21.179 30.834
H 21.078 21.371 30.671
H 19.403 22.094 30.644
C 19.516 20.091 29.958
H 20.041 19.112 30.118
C 18.436 19.999 29.146
C 17.431 21.058 28.943
H 17.817 21.966 29.344
H 17.307 21.193 27.89 
H 16.475 20.774 29.252
C 18.127 18.67  28.424
H 18.998 18.006 28.422
H 18.004 19.013 27.447
C 16.95  17.931 28.982
H 16.545 18.528 29.813
H 17.365 17.048 29.465
C 16.023 17.401 27.906
H 16.605 16.673 27.436
H 15.866 18.246 27.229
C 14.743 16.823 28.428
H 15.05  16.177 29.302
C 14.11  15.767 27.472
H 14.902 15.291 26.923
H 13.618 14.99  28.057
H 13.381 16.322 26.896
C 13.611 17.837 28.913
H 13.913 18.337 29.856
H 12.783 17.286 29.28 
C 13.24  18.889 27.888
H 13.658 18.599 26.921
H 13.578 19.869 28.091
C 11.683 18.947 27.733
H 11.282 18.275 28.37 
H 11.44  18.629 26.709
C 10.936 20.25  28.098
H 11.211 20.968 27.393
C 11.201 20.724 29.598
H 12.273 20.635 29.801
H 10.931 21.836 29.71 
H 10.668 20.234 30.373
C  9.392 20.138 28.036
H  9.037 21.032 28.465
H  9.199 19.257 28.642
C  8.729 19.924 26.664
H  9.42  19.375 26.08 
H  8.333 20.86  26.213
C  7.482 19.058 26.709
H  6.631 19.566 26.279
H  7.187 18.834 27.744
C  7.599 17.797 25.896
H  8.137 17.856 24.948
C  6.119 17.369 25.626
H  5.52  17.537 26.42 
H  5.732 18.037 24.812
H  6.069 16.319 25.304
C  8.23  16.644 26.725
H  8.245 15.624 26.254
H  9.218 16.993 27.022
H  7.489 16.464 27.536
