137

Mg 36.288 31.47  35.201
C 33.2   31.436 33.544
C 37.32  28.808 33.253
H 37.616 27.873 32.853
C 39.418 31.907 36.393
H 40.421 31.857 36.786
C 35.316 34.334 36.779
H 35.022 35.23  37.269
N 35.392 30.326 33.587
C 34.067 30.431 33.129
C 33.79  29.354 32.072
H 32.871 28.921 32.381
C 34.96  28.319 32.256
H 35.468 27.97  31.397
C 35.974 29.203 33.066
C 34.488 26.965 32.94 
H 33.519 26.598 32.412
H 35.17  26.154 32.849
H 34.273 27.042 34.015
C 33.571 29.937 30.668
H 34.537 30.307 30.316
H 32.91  30.794 30.809
C 32.798 29.026 29.618
H 33.383 29.035 28.717
H 32.689 28.056 30.025
C 31.408 29.509 29.152
O 30.835 29.198 28.093
O 30.749 30.345 30.063
N 38.05  30.541 34.937
C 38.264 29.472 34.08 
C 39.627 29.068 34.224
C 40.237 29.823 35.261
C 39.251 30.848 35.549
C 40.326 27.904 33.525
H 39.613 27.291 32.976
H 41.178 28.275 32.936
H 40.757 27.265 34.296
C 41.573 29.781 35.896
H 41.648 29.978 36.971
C 42.676 29.504 35.237
H 42.664 29.304 34.129
H 43.6   29.316 35.808
N 37.196 32.888 36.455
C 38.51  32.876 36.753
C 38.764 34.03  37.68 
C 37.517 34.706 37.746
C 36.622 33.967 36.921
C 40.033 34.215 38.291
H 40.181 35.242 38.536
H 40.226 33.507 39.125
H 40.814 33.976 37.543
C 37.335 36.057 38.449
H 36.459 36.096 39.143
H 38.165 36.216 39.2  
C 37.181 37.272 37.48 
H 36.481 37.232 36.648
H 36.825 38.246 37.951
H 38.131 37.538 36.981
N 34.62 32.73 35.12
C 34.365 33.849 35.886
C 33.125 34.404 35.454
C 32.53  33.429 34.683
C 33.514 32.441 34.47 
C 32.566 35.7   35.771
H 32.289 36.139 34.815
H 31.707 35.738 36.477
H 33.352 36.296 36.212
C 31.377 33.015 33.842
O 30.391 33.699 33.556
C 31.729 31.696 33.273
H 31.369 31.821 32.264
C 30.92  30.744 33.984
O 30.963 30.455 35.167
O 30.248 29.999 33.041
C 29.431 28.955 33.653
H 28.827 29.331 34.478
H 28.854 28.562 32.832
H 30.043 28.098 33.957
C 29.304 30.536 29.873
H 28.682 29.664 29.762
H 29.266 31.17  28.942
C 28.653 31.495 30.887
H 29.279 32.321 31.195
C 27.463 31.346 31.476
C 26.466 30.232 31.428
H 26.99  29.414 30.902
H 26.068 29.861 32.395
H 25.661 30.466 30.8  
C 27.051 32.332 32.59 
H 27.774 33.08  32.671
H 27.016 31.817 33.506
C 25.699 33.112 32.318
H 25.259 32.804 31.375
H 26.128 34.076 32.194
C 24.736 32.818 33.527
H 24.593 33.751 34.082
H 25.228 32.172 34.325
C 23.4   32.167 33.136
H 23.683 31.378 32.439
C 22.454 33.048 32.309
H 22.12  33.928 32.854
H 23.041 33.314 31.49 
H 21.626 32.483 31.893
C 22.721 31.716 34.439
H 22.173 32.608 34.839
H 23.423 31.451 35.247
C 21.877 30.377 34.308
H 22.012 29.809 35.242
H 22.329 29.759 33.559
C 20.415 30.511 33.979
H 19.995 29.605 34.32 
H 20.32  30.532 32.899
C 19.546 31.696 34.473
H 20.057 32.592 34.156
C 19.454 31.675 36.061
H 18.72  30.993 36.495
H 20.423 31.381 36.539
H 19.306 32.666 36.422
C 18.088 31.683 33.77 
H 17.48  32.429 34.33 
H 17.744 30.698 33.953
C 18.1   31.949 32.279
H 19.048 32.361 31.992
H 17.353 32.72  32.095
C 17.968 30.614 31.463
H 18.393 29.779 31.956
H 18.578 30.643 30.517
C 16.406 30.392 31.161
H 16.148 31.072 30.332
C 15.37  30.531 32.345
H 14.372 30.144 31.907
H 15.812 29.826 33.051
H 15.211 31.571 32.67 
C 16.294 28.962 30.665
H 15.251 28.681 30.393
H 16.871 28.884 29.774
H 16.696 28.273 31.372
