137

Mg 35.339 26.908 31.749
C 31.917 26.851 31.404
C 35.531 24.36  29.603
H 35.66  23.422 28.983
C 38.609 26.626 32.569
H 39.72  26.591 32.761
C 35.025 29.359 34.172
H 34.828 30.207 34.854
N 33.936 25.922 30.474
C 32.567 26.076 30.498
C 31.929 25.146 29.439
H 31.206 24.533 29.967
C 33.037 24.199 29.041
H 33.198 24.153 27.978
C 34.265 24.875 29.724
C 32.805 22.717 29.474
H 33.767 22.188 29.303
H 32.544 22.691 30.519
H 32.037 22.26  28.853
C 31.132 25.797 28.256
H 31.727 26.143 27.424
H 30.559 26.667 28.69 
C 29.957 24.927 27.67 
H 29.912 24.992 26.587
H 30.254 23.883 27.767
C 28.576 25.21  28.31 
O 28.025 24.383 29.077
O 27.997 26.342 27.733
N 36.819 25.74  31.039
C 36.751 24.77  30.176
C 38.033 24.077 30.08 
C 38.903 24.76  30.924
C 38.117 25.751 31.579
C 38.225 22.919 29.174
H 37.594 22.146 29.415
H 38.029 23.214 28.179
H 39.252 22.52  29.362
C 40.296 24.499 31.273
H 40.587 24.69  32.259
C 41.274 24.324 30.391
H 41.065 24.304 29.299
H 42.378 24.336 30.547
N 36.635 27.869 33.113
C 37.961 27.659 33.211
C 38.521 28.607 34.125
C 37.524 29.41  34.588
C 36.323 28.913 33.941
C 39.971 28.515 34.507
H 40.675 28.672 33.713
H 40.204 29.289 35.296
H 40.334 27.516 34.801
C 37.525 30.627 35.507
H 36.528 30.835 35.931
H 38.35  30.526 36.262
C 38.07  31.804 34.741
H 37.772 32.714 35.185
H 39.114 31.619 34.598
H 37.618 31.781 33.776
N 33.81  27.851 32.643
C 33.797 28.797 33.639
C 32.419 29.215 33.949
C 31.655 28.51  33.109
C 32.514 27.671 32.325
C 31.987 30.304 34.961
H 31.265 31.043 34.578
H 31.478 29.807 35.815
H 32.838 30.818 35.337
C 30.311 28.273 32.679
O 29.292 28.781 33.009
C 30.387 27.109 31.627
H 29.995 27.461 30.716
C 29.608 25.889 32.077
O 30.101 24.768 32.283
O 28.301 26.16  32.173
C 27.489 24.934 32.616
H 27.896 24.614 33.56 
H 26.418 25.106 32.685
H 27.526 24.227 31.913
C 26.533 26.353 27.954
H 26.234 26.227 28.952
H 26.095 25.509 27.453
C 25.853 27.693 27.439
H 25.955 27.849 26.412
C 25.219 28.596 28.18 
C 25.202 28.634 29.66 
H 26.127 28.247 30.007
H 25.148 29.647 29.997
H 24.34  28.139 30.097
C 24.752 29.872 27.531
H 25.202 29.907 26.525
H 25.102 30.766 28.087
C 23.254 30.037 27.541
H 23.057 31.067 27.724
H 22.764 29.384 28.276
C 22.718 29.763 26.122
H 21.738 29.25  26.247
H 23.328 29.134 25.484
C 22.017 30.825 25.299
H 22.717 31.666 25.128
C 20.867 31.548 26.078
H 20.514 32.445 25.603
H 20.094 30.794 26.318
H 21.18  31.906 27.063
C 21.524 30.307 23.905
H 20.712 30.892 23.575
H 21.048 29.368 24.093
C 22.581 30.076 22.848
H 23.083 29.074 22.901
H 23.389 30.744 22.995
C 22.027 30.315 21.434
H 20.954 30.297 21.47 
H 22.277 29.352 20.883
C 22.703 31.454 20.605
H 23.763 31.161 20.477
C 22.728 32.817 21.297
H 23.369 33.541 20.794
H 21.769 33.236 21.326
H 23.077 32.824 22.329
C 22.069 31.583 19.201
H 20.993 31.894 19.246
H 22.114 30.599 18.718
C 22.775 32.465 18.207
H 22.992 32.037 17.222
H 23.729 32.763 18.615
C 21.973 33.732 17.993
H 22.645 34.602 17.933
H 21.42  33.877 18.959
C 21.076 33.662 16.717
H 20.576 32.667 16.676
C 21.95  33.802 15.41 
H 22.393 34.71  15.232
H 22.63  32.977 15.355
H 21.241 33.645 14.561
C 19.913 34.62  16.695
H 19.139 34.245 16.12 
H 19.598 34.755 17.711
H 20.132 35.626 16.405
