137

Mg 22.881 27.337 39.507
C 20.708 24.668 39.425
C 24.214 26.316 36.53 
H 24.581 25.936 35.531
C 24.895 30.076 39.558
H 25.434 30.998 39.51 
C 21.245 28.575 42.301
H 20.778 28.893 43.208
N 22.483 25.67  38.159
C 21.464 24.726 38.255
C 21.479 23.703 37.177
H 21.66  22.735 37.675
C 22.714 24.228 36.24 
H 22.382 24.557 35.256
C 23.166 25.499 37.031
C 23.827 23.22  36.008
H 24.051 22.65  36.86 
H 23.52  22.49  35.247
H 24.731 23.597 35.622
C 20.156 23.581 36.406
H 19.771 24.589 36.134
H 19.512 23.158 37.115
C 20.256 22.776 35.068
H 21.244 22.512 34.774
H 19.66  21.92  35.207
C 19.666 23.304 33.822
O 19.224 24.437 33.657
O 19.605 22.349 32.853
N 24.351 28.099 38.246
C 24.693 27.508 37.075
C 25.718 28.289 36.378
C 25.978 29.395 37.29 
C 25.066 29.226 38.461
C 26.341 27.867 35.114
H 26.71  26.799 35.215
H 25.518 27.952 34.425
H 27.137 28.523 34.905
C 26.843 30.611 37.126
H 27.044 31.175 37.991
C 27.137 31.097 35.896
H 26.665 30.687 35.053
H 27.651 32.037 35.781
N 23.15  28.966 40.808
C 24.075 29.979 40.635
C 23.823 31.02  41.655
C 22.663 30.601 42.374
C 22.319 29.374 41.856
C 24.553 32.379 41.68 
H 25.332 32.293 42.453
H 25.004 32.679 40.738
H 23.849 33.189 41.958
C 21.942 31.403 43.446
H 21.896 30.845 44.359
H 22.472 32.348 43.565
C 20.446 31.7   42.999
H 20.111 32.53  43.668
H 20.441 31.883 41.979
H 19.804 30.832 43.045
N 21.397 26.77  40.65 
C 20.83  27.345 41.812
C 19.854 26.474 42.378
C 19.82  25.427 41.513
C 20.72  25.63  40.438
C 18.98  26.692 43.677
H 18.417 27.634 43.524
H 18.271 25.95  43.794
H 19.668 26.696 44.48 
C 19.101 24.227 41.319
O 18.172 23.654 41.919
C 19.598 23.692 39.948
H 18.811 23.565 39.298
C 20.237 22.41  40.289
O 21.237 22.245 40.937
O 19.481 21.409 39.723
C 19.645 20.113 40.323
H 20.665 19.815 39.95 
H 19.621 20.002 41.376
H 18.992 19.419 39.811
C 19.044 22.85  31.626
H 19.649 23.693 31.232
H 18.01  23.131 31.664
C 19.151 21.782 30.637
H 20.095 21.225 30.665
C 18.304 21.477 29.64 
C 16.931 22.079 29.473
H 16.513 22.448 30.401
H 16.812 22.917 28.805
H 16.183 21.336 29.178
C 18.709 20.501 28.56 
H 19.752 20.103 28.671
H 18.535 21.136 27.692
C 17.875 19.157 28.462
H 17.036 19.319 29.181
H 18.524 18.318 28.835
C 17.137 18.911 27.162
H 17.165 19.82  26.539
H 16.015 18.776 27.442
C 17.549 17.65  26.295
H 18.549 17.856 26.103
C 16.631 17.544 24.975
H 15.593 17.436 25.26 
H 16.778 18.45  24.421
H 16.951 16.807 24.32 
C 17.462 16.363 27.04 
H 18.228 16.373 27.827
H 17.838 15.719 26.261
C 16.066 16.076 27.667
H 15.336 16.751 27.261
H 16.169 16.216 28.761
C 15.549 14.664 27.42 
H 15.447 14.013 28.289
H 16.202 14.018 26.868
C 14.133 14.712 26.672
H 13.893 15.677 26.203
C 13.179 14.655 27.789
H 13.225 13.64  28.216
H 13.411 15.378 28.585
H 12.191 14.797 27.322
C 13.884 13.627 25.557
H 12.804 13.605 25.336
H 14.114 12.644 25.939
C 14.851 13.85  24.354
H 15.836 13.38  24.456
H 14.979 14.919 24.118
C 14.176 13.271 23.049
H 14.06  14.006 22.309
H 13.163 12.946 23.249
C 14.767 11.938 22.381
H 15.82  12.081 22.126
C 14.066 11.589 21.035
H 12.975 11.37  21.117
H 14.115 12.454 20.379
H 14.483 10.618 20.598
C 14.537 10.808 23.342
H 15.067 11.117 24.266
H 13.555 10.57  23.554
H 15.136  9.967 23.054
