137

Mg 30.388 28.27  42.139
C 27.183 28.903 42.826
C 29.434 28.166 38.761
H 29.125 28.18  37.663
C 33.509 27.449 41.287
H 34.587 27.396 41.086
C 31.052 27.871 45.484
H 31.062 27.654 46.544
N 28.53  28.492 40.992
C 27.349 28.868 41.456
C 26.241 29.106 40.375
H 25.376 28.411 40.484
C 26.977 28.515 39.154
H 26.937 29.317 38.451
C 28.365 28.341 39.636
C 26.386 27.269 38.494
H 27.067 27.064 37.649
H 26.4   26.378 39.16 
H 25.444 27.58  38.08 
C 25.757 30.588 40.208
H 26.486 31.205 39.737
H 25.718 30.976 41.211
C 24.412 30.838 39.474
H 23.879 29.86  39.251
H 23.814 31.338 40.292
C 24.435 31.513 38.179
O 24.132 32.694 37.954
O 24.625 30.663 37.13 
N 31.328 27.991 40.318
C 30.801 28.087 39.044
C 31.868 28.005 38.083
C 33.049 27.757 38.762
C 32.664 27.679 40.192
C 31.613 28.132 36.578
H 31.281 29.111 36.355
H 32.533 28.048 36.018
H 30.934 27.422 36.12 
C 34.384 27.419 38.321
H 35.3   27.596 38.93 
C 34.673 26.716 37.197
H 33.882 26.278 36.562
H 35.742 26.403 37.094
N 32.024 27.744 43.149
C 33.298 27.523 42.672
C 34.2   27.372 43.799
C 33.474 27.386 44.981
C 32.142 27.711 44.586
C 35.709 27.199 43.67 
H 36.181 26.627 44.471
H 35.901 26.629 42.812
H 36.114 28.204 43.556
C 33.993 27.232 46.365
H 33.313 26.602 46.937
H 35.022 26.937 46.473
C 34.026 28.621 47.113
H 34.899 29.195 46.984
H 33.211 29.192 46.818
H 34.125 28.476 48.245
N 29.378 28.327 43.806
C 29.735 28.181 45.152
C 28.653 28.6   46.098
C 27.65  28.931 45.193
C 28.131 28.674 43.858
C 28.652 28.629 47.597
H 28.948 29.645 47.916
H 27.627 28.379 47.943
H 29.293 27.883 47.926
C 26.285 29.38  45.108
O 25.481 29.703 46.008
C 25.909 29.303 43.635
H 25.62  30.304 43.316
C 24.812 28.385 43.617
O 24.807 27.227 44.028
O 23.793 28.977 42.89 
C 22.601 28.189 42.633
H 22.818 27.473 41.772
H 22.099 27.758 43.526
H 21.925 28.904 42.059
C 24.285 31.184 35.789
H 25.103 31.819 35.522
H 23.325 31.663 35.516
C 24.325 29.869 35.011
H 25.324 29.439 35.109
C 23.387 29.233 34.216
C 22.059 29.826 33.873
H 21.342 29.501 34.609
H 22.085 30.915 33.784
H 21.688 29.382 32.9  
C 23.813 27.954 33.582
H 24.901 27.887 33.742
H 23.556 28.065 32.576
C 23.136 26.783 34.242
H 22.362 27.206 34.896
H 23.744 26.194 34.909
C 22.406 25.786 33.354
H 23.037 24.863 33.322
H 22.327 26.317 32.375
C 20.946 25.38  33.736
H 20.965 24.919 34.767
C 20.459 24.212 32.795
H 19.349 23.98  32.861
H 20.702 24.63  31.796
H 21.099 23.356 32.998
C 19.891 26.544 33.652
H 20.393 27.363 34.104
H 19.158 26.205 34.396
C 19.253 26.996 32.377
H 19.763 26.505 31.616
H 19.442 28.027 32.277
C 17.752 26.697 32.378
H 17.27  27.691 32.48 
H 17.38  25.985 33.205
C 17.136 25.974 31.137
H 17.53 24.99 31.1 
C 17.396 26.725 29.852
H 16.956 26.202 29.036
H 16.979 27.753 30.036
H 18.427 26.845 29.52 
C 15.68  25.696 31.415
H 15.215 26.671 31.39 
H 15.679 25.292 32.466
C 14.882 24.707 30.497
H 14.373 24.063 31.156
H 15.54  24.134 29.867
C 13.792 25.476 29.699
H 13.872 25.049 28.66 
H 13.877 26.528 29.647
C 12.34  25.288 30.193
H 12.224 24.265 30.465
C 11.384 25.484 28.988
H 11.415 24.624 28.346
H 10.314 25.586 29.237
H 11.72  26.378 28.393
C 12.042 26.206 31.396
H 11.058 25.976 31.764
H 12.789 25.973 32.138
H 12.089 27.139 31.01 
