137

Mg 26.411 28.614 42.868
C 24.808 25.72  42.089
C 27.692 28.687 39.72 
H 28.286 28.732 38.803
C 27.436 31.652 43.584
H 27.963 32.555 43.816
C 25.07  28.36  46.081
H 24.819 28.194 47.12 
N 26.233 27.323 41.169
C 25.574 26.222 41.072
C 25.782 25.598 39.62 
H 26.285 24.599 39.712
C 26.898 26.503 38.953
H 26.456 26.907 38.053
C 26.933 27.588 40.014
C 28.273 25.782 38.591
H 28.987 26.688 38.582
H 28.48  25.107 39.427
H 28.314 25.386 37.603
C 24.407 25.365 38.857
H 24.127 26.449 38.69 
H 23.703 24.984 39.54 
C 24.346 24.382 37.63 
H 25.34  24.016 37.186
H 23.74  23.603 37.978
C 23.786 25.151 36.442
O 24.5   25.89  35.745
O 22.423 24.835 36.171
N 27.304 29.957 41.794
C 27.839 29.872 40.54 
C 28.594 31.04  40.166
C 28.502 31.886 41.258
C 27.677 31.166 42.323
C 29.436 31.22  38.902
H 30.035 32.12  39.024
H 30.113 30.458 38.783
H 28.69  31.3   38.066
C 29.074 33.235 41.338
H 30.143 33.375 40.982
C 28.466 34.267 41.996
H 27.493 34.15  42.39 
H 28.91  35.288 42.047
N 26.251 29.818 44.578
C 26.786 31.021 44.657
C 26.615 31.669 45.952
C 25.953 30.671 46.723
C 25.766 29.568 45.81 
C 27.17  33.013 46.395
H 26.363 33.566 46.935
H 27.979 32.719 47.115
H 27.588 33.567 45.584
C 25.53  30.709 48.173
H 26.015 29.899 48.81 
H 25.869 31.617 48.595
C 23.989 30.596 48.202
H 23.39  31.365 47.74 
H 23.537 29.676 47.813
H 23.828 30.588 49.303
N 25.344 27.329 43.932
C 24.898 27.249 45.233
C 24.454 25.922 45.483
C 24.327 25.381 44.258
C 24.817 26.27  43.358
C 23.999 25.34  46.711
H 23.959 24.223 46.693
H 24.47  25.61  47.599
H 22.916 25.717 46.821
C 23.862 24.141 43.667
O 23.308 23.172 44.18 
C 24.189 24.294 42.137
H 23.228 24.156 41.69 
C 25.074 23.059 41.901
O 26.311 23.012 42.031
O 24.384 21.965 41.479
C 25.092 20.674 41.229
H 24.401 20.02  40.746
H 26.045 20.883 40.61 
H 25.366 20.18  42.191
C 21.946 25.296 34.889
H 22.433 24.914 34.031
H 22.04  26.329 34.958
C 20.443 25.026 35.041
H 19.901 25.317 35.919
C 19.787 24.077 34.352
C 20.352 23.104 33.301
H 20.52  22.206 33.871
H 19.546 22.783 32.609
H 21.296 23.477 32.823
C 18.382 23.775 34.793
H 18.181 24.146 35.858
H 18.124 22.756 34.854
C 17.31  24.453 33.881
H 16.597 23.762 33.424
H 17.917 25.028 33.057
C 16.386 25.421 34.688
H 16.593 25.385 35.761
H 15.333 25.177 34.666
C 16.539 26.937 34.249
H 17.575 27.229 34.277
C 15.893 27.922 35.243
H 15.96 29.02 34.92
H 14.816 27.719 35.314
H 16.482 27.802 36.15 
C 16.058 27.261 32.814
H 16.432 26.6   32.089
H 16.466 28.18  32.524
C 14.559 27.263 32.43 
H 14.43  27.932 31.583
H 13.891 27.505 33.288
C 14.056 25.94  31.621
H 14.877 25.273 31.278
H 13.49  26.357 30.686
C 12.94  25.148 32.392
H 13.434 24.94  33.271
C 12.774 23.73  31.85 
H 12.205 23.825 30.893
H 13.819 23.317 31.669
H 12.334 23.008 32.538
C 11.609 25.883 32.743
H 11.129 26.24  31.798
H 11.756 26.808 33.247
C 10.577 25.11  33.564
H 10.191 25.736 34.4  
H 11.007 24.16  34.022
C  9.333 24.641 32.715
H  9.91  24.101 31.968
H  8.922 25.481 32.189
C  8.305 23.606 33.346
H  7.681 24.044 34.074
C  8.937 22.377 33.918
H  9.579 22.802 34.676
H  8.274 21.675 34.315
H  9.58  21.945 33.152
C  7.347 23.184 32.285
H  6.49  22.679 32.656
H  6.923 24.129 31.828
H  7.706 22.513 31.506
