137

Mg 28.468 29.184 37.295
C 25.443 28.746 38.901
C 27.118 27.847 34.518
H 26.707 27.421 33.639
C 31.146 30.302 35.672
H 31.991 30.749 35.156
C 29.965 30.176 40.312
H 30.405 30.423 41.31 
N 26.479 28.432 36.767
C 25.383 28.325 37.571
C 24.194 27.767 36.805
H 23.624 27.04  37.299
C 24.872 27.225 35.543
H 24.5   27.592 34.58 
C 26.245 27.83  35.588
C 24.809 25.689 35.596
H 23.793 25.398 35.523
H 25.4   25.319 34.73 
H 25.251 25.287 36.456
C 23.184 28.93  36.47 
H 23.724 29.687 35.901
H 22.932 29.389 37.463
C 21.906 28.559 35.678
H 21.862 27.468 35.454
H 21.148 28.601 36.488
C 21.326 29.432 34.696
O 20.831 30.495 34.982
O 21.477 28.975 33.345
N 29.026 29.096 35.408
C 28.34  28.469 34.357
C 29.109 28.639 33.11 
C 30.191 29.322 33.468
C 30.202 29.618 34.918
C 28.825 27.952 31.769
H 28.123 28.572 31.228
H 29.539 27.784 31.025
H 28.375 27.028 32.05 
C 31.284 29.673 32.646
H 32.017 28.875 32.395
C 31.445 30.943 32.169
H 30.663 31.656 32.243
H 32.349 31.141 31.569
N 30.304 30.113 37.891
C 31.242 30.552 37.048
C 32.334 31.138 37.811
C 31.975 30.955 39.151
C 30.763 30.346 39.135
C 33.566 31.735 37.092
H 34.408 31.128 37.355
H 33.402 31.786 36.053
H 33.687 32.741 37.532
C 32.786 31.406 40.374
H 32.782 30.573 41.126
H 33.841 31.538 40.087
C 32.246 32.705 40.989
H 31.543 32.533 41.718
H 33.104 33.067 41.47 
H 31.989 33.381 40.202
N 27.9   29.402 39.12 
C 28.611 29.924 40.266
C 27.69  30.018 41.432
C 26.455 29.552 40.958
C 26.641 29.232 39.558
C 28.156 30.394 42.801
H 28.693 31.373 42.737
H 27.347 30.47  43.479
H 28.864 29.551 43.025
C 25.089 29.218 41.325
O 24.521 29.362 42.392
C 24.389 28.681 39.996
H 23.553 29.386 39.849
C 23.925 27.371 40.403
O 24.687 26.445 40.568
O 22.563 27.264 40.653
C 22.204 26.025 41.354
H 22.697 26.088 42.339
H 21.109 25.992 41.481
H 22.525 25.155 40.777
C 21.018 29.977 32.357
H 21.504 30.896 32.467
H 19.966 30.128 32.502
C 21.295 29.375 30.969
H 22.23  29.732 30.441
C 20.546 28.551 30.17 
C 19.264 27.916 30.695
H 19.389 26.891 31.012
H 18.957 28.402 31.636
H 18.474 28.048 29.95 
C 21.066 28.194 28.736
H 21.877 28.925 28.573
H 20.192 28.29  28.077
C 21.79  26.845 28.501
H 21.811 26.171 29.345
H 22.835 27.129 28.322
C 21.157 26.077 27.225
H 21.973 26.034 26.507
H 20.376 26.695 26.708
C 20.663 24.666 27.456
H 21.54  24.11  27.789
C 20.225 23.974 26.158
H 19.928 22.944 26.494
H 19.39  24.566 25.823
H 21.06  24.036 25.441
C 19.603 24.503 28.542
H 20.114 24.962 29.392
H 19.438 23.419 28.771
C 18.224 25.271 28.414
H 18.382 26.231 27.923
H 17.873 25.426 29.456
C 17.193 24.505 27.612
H 17.476 23.503 27.468
H 17.055 25.1   26.682
C 15.851 24.269 28.405
H 15.527 25.277 28.819
C 15.98  23.25  29.611
H 16.328 22.232 29.246
H 16.691 23.618 30.352
H 15.014 23.083 30.092
C 14.75  23.782 27.348
H 14.994 22.719 27.091
H 14.829 24.426 26.554
C 13.304 23.721 27.874
H 12.74  24.064 26.985
H 13.124 24.353 28.71 
C 12.84  22.275 28.186
H 13.686 21.551 28.409
H 12.262 21.914 27.33 
C 12.061 22.179 29.553
H 12.774 22.671 30.244
C 11.962 20.807 30.134
H 12.982 20.476 30.428
H 11.433 20.831 31.053
H 11.405 20.127 29.527
C 10.671 22.854 29.434
H 10.794 23.964 29.336
H  9.974 22.394 28.662
H 10.057 22.648 30.315
