137

Mg 30.417 30.501 36.398
C 29.48  27.208 36.647
C 29.878 30.218 33.091
H 29.807 30.136 31.952
C 31.451 33.665 36.091
H 31.728 34.776 36.037
C 31.166 30.554 39.773
H 31.457 30.583 40.833
N 29.89  28.861 35.021
C 29.422 27.593 35.32 
C 28.697 26.831 34.19 
H 29.297 25.954 33.973
C 28.95  27.871 33.025
H 28.057 28.25  32.467
C 29.552 29.107 33.762
C 29.833 27.186 31.96 
H 30.675 26.667 32.43 
H 29.231 26.597 31.307
H 30.201 27.905 31.251
C 27.155 26.745 34.471
H 26.624 27.594 34.153
H 26.899 26.533 35.496
C 26.538 25.563 33.739
H 25.688 26.077 33.151
H 27.108 25.026 32.979
C 25.956 24.422 34.514
O 26.087 24.199 35.726
O 25.24  23.616 33.658
N 30.678 31.785 34.786
C 30.415 31.49  33.49 
C 30.602 32.702 32.623
C 31.08  33.717 33.572
C 31.05  33.103 34.925
C 30.565 32.782 31.098
H 29.767 32.158 30.577
H 30.259 33.81  30.868
H 31.586 32.617 30.767
C 31.372 35.127 33.343
H 31.359 35.887 34.117
C 31.733 35.582 32.146
H 31.924 34.981 31.34 
H 31.943 36.699 32.085
N 31.139 31.9   37.72 
C 31.491 33.189 37.391
C 31.835 33.935 38.595
C 31.822 32.972 39.646
C 31.352 31.723 39.072
C 32.382 35.285 38.639
H 33.207 35.446 39.389
H 32.816 35.529 37.676
H 31.498 35.947 38.738
C 32.278 33.134 41.096
H 32.917 32.241 41.402
H 32.91  34.011 41.211
C 31.154 33.301 42.055
H 30.441 32.444 42.047
H 31.319 33.763 43.02 
H 30.584 34.014 41.437
N 30.395 29.18  37.86 
C 30.716 29.338 39.22 
C 30.527 28.05  39.933
C 30.087 27.18  38.923
C 29.936 27.927 37.692
C 30.893 27.747 41.338
H 30.409 26.81  41.67 
H 31.989 27.712 41.546
H 30.474 28.478 42.089
C 29.728 25.824 38.713
O 29.64  24.874 39.492
C 29.357 25.737 37.16 
H 28.351 25.339 36.89 
C 30.5   24.839 36.66 
O 31.616 25.259 36.461
O 30.032 23.529 36.496
C 30.985 22.562 36.04 
H 31.43  22.732 35.031
H 31.869 22.451 36.782
H 30.499 21.561 36.027
C 24.538 22.537 34.405
H 23.777 22.889 35.027
H 25.249 22.019 35.007
C 24.131 21.504 33.339
H 24.816 21.125 32.579
C 22.857 21.164 32.967
C 21.643 21.677 33.618
H 21.283 20.981 34.397
H 21.912 22.534 34.194
H 20.843 22.033 32.946
C 22.639 20.25  31.734
H 23.484 20.171 31.135
H 21.978 20.817 31.07 
C 21.911 18.902 31.908
H 20.827 18.943 31.781
H 22.033 18.559 32.968
C 22.412 17.809 30.856
H 23.345 18.215 30.488
H 21.813 17.652 29.993
C 22.571 16.291 31.447
H 23.205 16.355 32.306
C 23.189 15.324 30.316
H 23.238 14.305 30.608
H 22.707 15.295 29.268
H 24.148 15.681 30.069
C 21.275 15.603 32.078
H 20.813 16.198 32.863
H 21.732 14.681 32.424
C 19.993 15.447 31.153
H 20.116 15.86  30.126
H 19.152 15.915 31.661
C 19.648 13.932 31.032
H 18.807 13.74  31.778
H 20.473 13.234 31.131
C 19.04  13.582 29.663
H 19.785 13.902 28.986
C 17.708 14.417 29.392
H 16.902 14.138 30.078
H 17.83  15.485 29.426
H 17.454 14.277 28.306
C 18.849 12.124 29.29 
H 18.354 12.114 28.386
H 18.148 11.7   30.059
C 20.151 11.304 29.125
H 21.076 11.761 29.297
H 20.109 10.865 28.059
C 20.243 10.084 30.076
H 19.496 10.115 30.925
H 21.254 10.252 30.446
C 20.203  8.633 29.498
H 20.999  8.524 28.712
C 18.839  8.331 28.838
H 18.114  8.015 29.577
H 18.396  9.275 28.456
H 19.008  7.529 28.154
C 20.431  7.572 30.633
H 21.288  7.786 31.211
H 19.556  7.512 31.233
H 20.589  6.611 30.168
