137

Mg 21.155 18.172 26.88 
C 22.346 17.788 23.534
C 24.11  19.579 27.639
H 25.    20.153 27.855
C 20.175 18.074 30.049
H 19.87  17.88  31.114
C 18.179 16.739 25.744
H 17.284 16.252 25.351
N 22.957 18.596 25.717
C 23.237 18.387 24.347
C 24.525 19.109 23.945
H 25.205 18.292 23.649
C 25.078 19.678 25.273
H 25.266 20.808 25.286
C 23.936 19.291 26.294
C 26.411 19.042 25.565
H 26.781 19.178 26.539
H 26.451 17.941 25.373
H 27.128 19.518 24.907
C 24.442 20.155 22.826
H 23.602 20.751 23.115
H 23.993 19.722 21.922
C 25.71  20.975 22.537
H 26.638 20.468 22.864
H 25.757 21.053 21.43 
C 25.823 22.418 22.803
O 26.67  23.122 22.279
O 24.838 22.849 23.667
N 22.022 18.65  28.588
C 23.265 19.213 28.747
C 23.472 19.559 30.152
C 22.375 19.067 30.852
C 21.511 18.572 29.871
C 24.647 20.29  30.717
H 25.357 19.551 31.092
H 24.977 20.946 29.934
H 24.378 20.952 31.501
C 22.007 19.028 32.285
H 20.956 19.2   32.574
C 22.916 18.75  33.323
H 24.02  18.643 33.04 
H 22.603 18.663 34.344
N 19.459 17.575 27.728
C 19.23  17.584 29.093
C 17.947 16.93  29.388
C 17.415 16.579 28.136
C 18.355 17.052 27.14 
C 17.453 16.664 30.724
H 18.313 16.652 31.421
H 16.722 17.484 30.965
H 16.901 15.704 30.761
C 16.011 15.981 27.935
H 16.139 15.285 27.108
H 15.664 15.553 28.893
C 15.017 17.1   27.56 
H 14.012 16.575 27.476
H 15.076 17.855 28.342
H 15.379 17.525 26.623
N 20.404 17.402 25.14 
C 19.202 16.869 24.798
C 19.084 16.479 23.419
C 20.323 16.8   22.898
C 21.095 17.375 23.986
C 17.783 15.898 22.671
H 16.891 16.535 22.705
H 18.066 15.804 21.617
H 17.59  14.898 23.14 
C 21.01  16.804 21.636
O 20.582 16.47  20.53 
C 22.448 17.369 22.036
H 22.537 18.198 21.421
C 23.499 16.375 21.752
O 23.566 15.208 22.115
O 24.407 16.946 20.92 
C 25.58  16.145 20.522
H 26.223 16.772 19.811
H 26.081 15.777 21.404
H 25.124 15.276 20.011
C 24.61  24.277 23.572
H 24.492 24.429 22.514
H 25.383 24.846 23.924
C 23.314 24.398 24.298
H 23.527 24.178 25.325
C 22.106 24.796 23.971
C 21.831 25.235 22.532
H 21.549 26.331 22.545
H 22.646 25.195 21.834
H 21.013 24.532 22.204
C 20.908 24.831 24.913
H 21.194 24.386 25.849
H 20.195 24.117 24.484
C 20.224 26.197 25.015
H 19.297 26.217 24.522
H 20.788 26.93  24.473
C 20.005 26.723 26.465
H 20.007 25.893 27.19 
H 18.976 27.041 26.553
C 20.866 27.919 26.837
H 20.906 28.519 25.912
C 22.275 27.455 27.238
H 23.036 28.209 27.343
H 22.201 26.922 28.153
H 22.675 26.664 26.565
C 20.189 28.785 27.973
H 20.876 29.625 28.12 
H 20.175 28.279 28.913
C 18.777 29.371 27.685
H 18.047 28.709 28.148
H 18.626 29.239 26.635
C 18.703 30.883 28.065
H 18.404 31.394 27.195
H 19.688 31.225 28.23 
C 17.648 31.337 29.12 
H 16.726 30.939 28.79 
C 17.42  32.866 29.129
H 16.57  33.124 29.697
H 18.209 33.434 29.631
H 17.084 33.18  28.128
C 17.999 30.768 30.565
H 18.741 31.48  30.86 
H 18.333 29.715 30.483
C 16.814 30.794 31.645
H 16.736 29.905 32.262
H 15.86  30.953 31.109
C 16.948 31.862 32.698
H 15.99  32.284 32.792
H 17.666 32.623 32.374
C 17.41  31.449 34.094
H 16.573 30.938 34.542
C 17.871 32.642 34.977
H 17.041 33.267 35.071
H 18.233 32.253 35.944
H 18.686 33.144 34.302
C 18.655 30.493 33.951
H 18.351 29.498 33.54 
H 19.381 30.978 33.219
H 19.195 30.411 34.849
