137

Mg 36.429 31.573 35.132
C 33.119 31.338 34.021
C 37.056 28.763 33.259
H 37.242 27.922 32.588
C 39.514 31.674 36.299
H 40.556 31.698 36.543
C 35.657 34.501 36.806
H 35.448 35.282 37.434
N 35.237 30.3   33.721
C 33.908 30.353 33.497
C 33.457 29.383 32.437
H 32.611 28.907 32.875
C 34.658 28.404 32.344
H 34.984 28.338 31.247
C 35.745 29.22  33.093
C 34.415 27.106 33.091
H 33.739 26.529 32.521
H 35.333 26.439 33.007
H 34.054 27.223 34.144
C 33.167 30.    31.066
H 34.079 30.298 30.491
H 32.637 30.922 31.201
C 32.508 29.04  30.116
H 33.283 28.825 29.354
H 32.265 28.138 30.606
C 31.107 29.508 29.531
O 30.76  29.592 28.383
O 30.171 29.737 30.552
N 38.038 30.441 34.717
C 38.108 29.302 34.065
C 39.403 28.752 34.069
C 40.152 29.61  34.893
C 39.17  30.625 35.406
C 39.735 27.379 33.367
H 39.864 27.578 32.332
H 40.643 26.953 33.738
H 38.906 26.74  33.598
C 41.507 29.413 35.44 
H 41.693 29.625 36.472
C 42.617 29.127 34.671
H 42.484 28.917 33.577
H 43.67  29.287 34.956
N 37.415 32.833 36.261
C 38.739 32.745 36.646
C 39.11  33.846 37.537
C 37.993 34.659 37.478
C 36.978 34.036 36.778
C 40.393 33.988 38.344
H 41.08  33.226 38.29 
H 40.936 34.823 38.03 
H 40.303 34.166 39.411
C 37.977 35.982 38.228
H 37.305 35.842 39.064
H 38.951 36.273 38.601
C 37.483 37.13  37.368
H 36.402 37.054 37.204
H 37.498 38.087 37.898
H 38.031 37.223 36.399
N 34.777 32.701 35.471
C 34.52  33.889 36.18 
C 33.107 34.257 36.176
C 32.611 33.385 35.27 
C 33.573 32.354 34.975
C 32.408 35.456 36.771
H 32.308 36.054 35.848
H 31.44  35.239 37.189
H 33.018 35.968 37.551
C 31.394 32.98  34.56 
O 30.327 33.576 34.502
C 31.661 31.685 33.833
H 31.233 31.821 32.899
C 30.827 30.653 34.489
O 30.739 30.485 35.656
O 30.36  29.731 33.58 
C 29.825 28.464 34.033
H 28.929 28.644 34.586
H 29.522 28.023 33.122
H 30.51  27.947 34.736
C 28.756 29.819 30.213
H 28.458 28.944 29.719
H 28.509 30.654 29.605
C 28.047 30.132 31.535
H 28.527 30.918 32.129
C 27.018 29.578 32.088
C 26.25  28.452 31.487
H 26.71  27.827 30.683
H 25.974 27.756 32.224
H 25.269 28.808 31.157
C 26.337 30.17  33.361
H 27.104 30.062 34.11 
H 25.467 29.584 33.545
C 26.016 31.724 33.238
H 25.703 31.895 32.244
H 26.865 32.318 33.623
C 24.764 32.191 34.04 
H 25.024 33.052 34.701
H 24.44  31.357 34.673
C 23.521 32.644 33.165
H 22.998 31.783 32.613
C 23.807 33.915 32.273
H 24.282 34.661 32.859
H 24.431 33.657 31.418
H 22.826 34.194 31.733
C 22.292 32.909 34.045
H 21.514 33.482 33.489
H 22.613 33.567 34.817
C 21.532 31.764 34.764
H 21.336 32.111 35.812
H 22.2   30.872 34.785
C 20.21  31.115 34.158
H 20.131 30.043 34.444
H 20.381 31.052 33.107
C 18.783 31.616 34.483
H 18.763 32.734 34.292
C 18.34  31.388 35.976
H 17.978 30.318 36.142
H 19.174 31.741 36.55 
H 17.459 32.043 36.164
C 17.725 30.916 33.592
H 16.727 31.158 34.057
H 17.91  29.837 33.845
C 17.665 31.304 32.077
H 18.559 31.897 31.832
H 16.783 31.85  31.868
C 17.608 30.036 31.196
H 17.867 29.077 31.728
H 18.235 30.297 30.326
C 16.267 29.695 30.443
H 16.084 30.63  29.917
C 15.136 29.477 31.396
H 14.256 29.357 30.878
H 15.31  28.771 32.218
H 15.029 30.406 31.932
C 16.564 28.502 29.519
H 15.642 28.477 28.953
H 17.474 28.672 28.874
H 16.879 27.593 30.008
