137

Mg 28.664 30.509 33.789
C 29.148 27.244 32.535
C 27.595 31.453 30.755
H 27.429 31.804 29.761
C 28.108 33.454 35.097
H 27.976 34.418 35.58 
C 30.447 29.451 36.561
H 31.083 29.222 37.435
N 28.198 29.409 31.898
C 28.519 28.106 31.597
C 28.31  27.825 30.078
H 29.246 27.415 29.759
C 28.1   29.298 29.513
H 27.161 29.389 28.94 
C 27.964 30.106 30.779
C 29.246 29.715 28.526
H 30.276 29.817 28.919
H 29.442 28.816 27.919
H 28.971 30.523 27.856
C 27.114 26.854 29.809
H 26.2   27.293 30.209
H 27.276 25.921 30.319
C 26.714 26.692 28.301
H 25.676 27.029 28.125
H 27.364 27.387 27.708
C 26.727 25.281 27.668
O 27.289 25.041 26.639
O 26.014 24.288 28.307
N 27.847 32.203 33.072
C 27.453 32.387 31.792
C 27.121 33.854 31.642
C 27.173 34.448 32.963
C 27.677 33.359 33.763
C 26.731 34.488 30.331
H 27.49  34.366 29.526
H 25.842 33.978 29.949
H 26.454 35.532 30.461
C 26.753 35.775 33.453
H 27.334 36.17  34.312
C 25.716 36.531 33.008
H 25.098 36.255 32.105
H 25.346 37.425 33.525
N 29.157 31.352 35.558
C 28.864 32.591 35.894
C 29.287 32.795 37.231
C 30.055 31.729 37.635
C 29.883 30.771 36.543
C 29.164 34.057 38.044
H 30.165 34.305 38.178
H 28.842 34.922 37.501
H 28.52  33.838 38.926
C 30.963 31.61  38.834
H 31.958 31.319 38.551
H 31.036 32.523 39.403
C 30.459 30.67  39.895
H 29.376 30.62  40.328
H 30.719 29.63  39.73 
H 31.041 30.972 40.755
N 29.558 28.66  34.576
C 30.33  28.464 35.66 
C 30.943 27.173 35.646
C 30.417 26.61  34.458
C 29.61  27.563 33.864
C 31.948 26.626 36.73 
H 32.945 26.736 36.301
H 31.771 27.137 37.708
H 31.846 25.548 36.809
C 30.411 25.482 33.57 
O 31.02  24.413 33.666
C 29.558 25.818 32.376
H 28.693 25.209 32.271
C 30.422 25.48  31.179
O 31.515 25.91  30.883
O 29.741 24.557 30.415
C 30.431 24.147 29.224
H 30.483 24.913 28.425
H 31.465 23.907 29.402
H 29.872 23.276 28.842
C 26.117 22.921 27.776
H 27.007 22.371 28.213
H 26.319 22.771 26.778
C 24.809 22.212 28.239
H 24.343 22.494 29.152
C 24.087 21.336 27.58 
C 24.466 20.684 26.257
H 23.727 20.876 25.541
H 25.413 21.075 25.93 
H 24.522 19.595 26.355
C 22.86  20.854 28.309
H 22.762 21.08  29.37 
H 22.879 19.754 28.185
C 21.617 21.204 27.368
H 21.142 20.298 27.045
H 21.964 21.919 26.635
C 20.47  21.869 28.157
H 20.38  22.849 27.692
H 20.799 22.078 29.184
C 19.037 21.227 28.083
H 18.853 20.927 27.043
C 17.929 22.244 28.411
H 17.979 22.617 29.5  
H 17.92  23.046 27.622
H 16.914 21.767 28.428
C 18.844 19.909 28.898
H 19.701 19.29  28.61 
H 17.951 19.412 28.631
C 18.775 19.933 30.434
H 17.751 19.609 30.779
H 19.087 20.864 30.854
C 19.951 19.087 31.072
H 20.774 18.844 30.429
H 19.538 18.104 31.119
C 20.515 19.621 32.436
H 19.62  19.711 33.036
C 21.41  20.907 32.346
H 21.801 21.36  33.325
H 22.315 20.676 31.775
H 20.97  21.636 31.804
C 21.32  18.605 33.363
H 21.516 19.16  34.319
H 22.267 18.312 32.848
C 20.422 17.412 33.837
H 19.367 17.543 33.419
H 20.362 17.376 34.915
C 21.05  16.086 33.286
H 21.4   15.552 34.126
H 22.026 16.269 32.827
C 20.144 15.143 32.42 
H 19.543 15.709 31.683
C 19.129 14.387 33.391
H 18.342 13.932 32.776
H 19.48  13.538 34.062
H 18.65  15.184 34.016
C 20.966 14.034 31.611
H 21.527 13.388 32.266
H 20.217 13.523 30.946
H 21.766 14.542 31.029
