137

Mg 22.972 32.143 36.084
C 21.718 29.881 38.349
C 19.766 32.342 34.634
H 18.792 32.294 34.159
C 24.149 34.067 33.519
H 24.66  34.601 32.698
C 26.159 31.473 37.052
H 27.18  31.393 37.434
N 20.994 31.253 36.523
C 20.699 30.364 37.519
C 19.235 29.992 37.434
H 19.249 28.921 37.123
C 18.638 30.725 36.243
H 17.978 31.513 36.499
C 19.863 31.487 35.778
C 18.071 29.774 35.149
H 17.838 30.42  34.307
H 18.854 29.075 34.897
H 17.18  29.234 35.432
C 18.449 30.208 38.732
H 18.273 31.291 38.797
H 19.06  29.869 39.549
C 17.014 29.535 38.781
H 16.733 29.095 37.824
H 16.928 28.806 39.513
C 15.972 30.556 39.056
O 15.259 30.61  40.059
O 15.932 31.469 38.036
N 22.103 33.186 34.483
C 20.869 33.163 34.118
C 20.59  33.971 32.872
C 21.795 34.458 32.515
C 22.751 33.951 33.509
C 19.125 34.167 32.286
H 18.343 34.147 33.105
H 19.105 35.127 31.771
H 18.763 33.259 31.605
C 22.224 35.087 31.216
H 23.206 35.553 31.158
C 21.624 35.002 30.008
H 20.694 34.456 29.942
H 22.115 35.318 29.083
N 24.832 32.851 35.523
C 25.122 33.617 34.377
C 26.547 33.784 34.262
C 27.098 33.13  35.371
C 26.037 32.469 36.07 
C 27.299 34.574 33.179
H 26.64  35.115 32.466
H 27.936 35.319 33.606
H 27.897 33.962 32.492
C 28.539 33.119 35.7  
H 28.948 32.162 35.802
H 29.163 33.652 34.917
C 28.854 33.645 37.151
H 29.944 33.988 37.133
H 28.309 34.607 37.352
H 28.821 32.795 37.903
N 23.807 31.004 37.415
C 25.077 30.717 37.681
C 25.259 29.734 38.669
C 23.975 29.458 38.936
C 23.109 30.171 38.163
C 26.453 29.158 39.271
H 27.238 28.809 38.495
H 26.86  29.898 39.888
H 26.157 28.293 39.905
C 23.211 28.585 39.817
O 23.51  27.73  40.624
C 21.719 28.835 39.444
H 21.227 29.266 40.318
C 21.125 27.557 39.18 
O 21.283 26.994 38.098
O 20.433 27.099 40.298
C 19.973 25.704 40.17 
H 19.318 25.467 41.024
H 19.404 25.605 39.247
H 20.812 25.019 40.247
C 14.864 32.44  38.135
H 14.942 33.101 39.05 
H 13.932 31.957 38.041
C 15.123 33.184 36.846
H 15.544 32.486 36.104
C 15.094 34.518 36.574
C 14.63  35.666 37.53 
H 15.568 36.21  37.849
H 13.949 36.375 37.119
H 14.11  35.228 38.38 
C 15.812 34.921 35.283
H 15.692 34.1   34.568
H 16.895 34.94  35.594
C 15.261 36.185 34.568
H 15.917 36.974 35.02 
H 14.242 36.436 34.807
C 15.381 35.958 33.047
H 14.812 35.069 32.82 
H 16.456 35.769 32.781
C 14.941 37.256 32.25 
H 14.062 37.633 32.764
C 14.588 36.807 30.763
H 15.546 36.309 30.442
H 13.744 36.113 30.715
H 14.573 37.754 30.18 
C 16.035 38.425 32.228
H 16.169 38.829 33.216
H 15.654 39.24  31.549
C 17.459 38.034 31.591
H 17.43  37.203 30.884
H 18.018 37.606 32.438
C 18.227 39.273 31.068
H 19.107 39.307 31.74 
H 17.818 40.261 31.224
C 18.951 39.222 29.698
H 18.211 39.178 28.898
C 19.964 38.008 29.442
H 20.289 37.935 28.393
H 20.891 38.03  30.039
H 19.388 37.137 29.687
C 19.818 40.435 29.446
H 20.42  40.293 28.585
H 20.451 40.502 30.349
C 19.012 41.794 29.304
H 17.924 41.777 29.567
H 19.101 42.039 28.264
C 19.683 42.93  30.126
H 19.665 43.764 29.515
H 20.668 42.606 30.409
C 19.062 43.171 31.516
H 19.263 42.274 32.17 
C 17.665 43.754 31.701
H 17.374 43.928 32.739
H 17.594 44.718 31.182
H 16.873 43.107 31.28 
C 19.974 44.192 32.336
H 19.554 44.499 33.24 
H 20.948 43.712 32.543
H 20.026 45.152 31.72 
