137

Mg 26.923 32.277 38.925
C 25.295 29.467 40.121
C 23.976 33.417 37.614
H 23.118 33.668 37.028
C 28.564 35.047 37.938
H 29.165 35.879 37.605
C 29.822 31.007 40.435
H 30.677 30.556 40.951
N 24.842 31.602 38.936
C 24.41  30.389 39.483
C 22.935 30.112 39.063
H 22.996 29.249 38.332
C 22.536 31.37  38.252
H 21.753 31.92  38.806
C 23.856 32.177 38.262
C 22.029 30.962 36.812
H 21.611 31.784 36.225
H 22.884 30.546 36.355
H 21.239 30.268 36.771
C 22.008 29.55  40.246
H 21.852 30.467 40.836
H 22.334 28.795 40.95 
C 20.695 29.074 39.768
H 20.762 28.965 38.68 
H 20.419 28.108 40.201
C 19.466 29.933 40.007
O 18.739 29.93  40.994
O 19.343 30.946 39.018
N 26.364 34.015 38.028
C 25.105 34.262 37.463
C 25.222 35.595 36.769
C 26.501 36.022 36.941
C 27.221 34.993 37.671
C 24.01  36.18  36.155
H 23.65  35.539 35.349
H 23.211 36.27  36.934
H 24.128 37.141 35.696
C 27.145 37.209 36.363
H 28.213 37.055 36.103
C 26.603 38.426 36.054
H 25.543 38.594 36.286
H 27.225 39.181 35.52 
N 28.901 32.951 39.162
C 29.354 34.133 38.652
C 30.778 34.318 39.031
C 31.129 33.184 39.788
C 29.917 32.292 39.795
C 31.601 35.579 38.73 
H 32.628 35.223 38.515
H 31.318 36.094 37.888
H 31.541 36.252 39.527
C 32.47  32.651 40.19 
H 32.573 31.626 39.776
H 33.214 33.256 39.693
C 32.617 32.54  41.735
H 33.557 32.005 42.038
H 32.783 33.474 42.262
H 31.815 32.049 42.129
N 27.464 30.558 40.069
C 28.707 30.168 40.476
C 28.628 28.846 41.03 
C 27.288 28.513 40.898
C 26.635 29.616 40.322
C 29.767 28.019 41.48 
H 29.661 26.98  41.308
H 30.64  28.398 40.963
H 29.899 28.077 42.517
C 26.334 27.412 41.073
O 26.432 26.244 41.467
C 24.965 28.019 40.662
H 24.348 27.992 41.564
C 24.361 27.092 39.629
O 24.592 27.19  38.432
O 23.384 26.247 40.118
C 22.751 25.357 39.08 
H 21.968 24.813 39.603
H 22.305 25.926 38.278
H 23.296 24.476 38.703
C 18.296 31.866 39.247
H 18.295 32.334 40.276
H 17.369 31.512 38.928
C 18.585 32.917 38.236
H 18.152 32.757 37.279
C 19.293 34.061 38.408
C 20.073 34.455 39.645
H 21.137 34.429 39.393
H 19.795 35.518 39.702
H 19.694 33.932 40.498
C 19.393 34.963 37.18 
H 19.3   34.44  36.284
H 20.395 35.396 36.972
C 18.479 36.206 37.139
H 19.164 37.01  37.367
H 17.77  36.148 38.001
C 17.735 36.37  35.839
H 16.674 36.211 36.026
H 18.056 35.698 35.076
C 17.834 37.79  35.201
H 17.609 38.424 36.076
C 16.768 38.014 33.983
H 16.788 39.039 33.73 
H 17.064 37.305 33.127
H 15.748 37.77  34.301
C 19.302 38.153 34.748
H 19.984 38.333 35.565
H 19.192 39.126 34.335
C 19.997 37.258 33.715
H 19.462 36.318 33.572
H 21.004 36.945 34.094
C 20.243 37.897 32.334
H 21.288 38.319 32.378
H 19.507 38.693 32.265
C 20.063 36.96  31.077
H 20.648 36.045 31.267
C 20.582 37.714 29.817
H 20.545 37.072 28.953
H 19.968 38.619 29.625
H 21.591 38.015 30.04 
C 18.589 36.548 30.821
H 18.103 37.533 30.513
H 18.109 36.11  31.644
C 18.427 35.346 29.805
H 17.813 34.565 30.262
H 19.377 34.974 29.465
C 17.782 35.625 28.401
H 18.428 35.324 27.587
H 17.705 36.733 28.394
C 16.363 34.97  28.273
H 16.523 33.976 28.69 
C 16.003 35.024 26.827
H 15.136 34.416 26.603
H 15.772 36.024 26.539
H 16.863 34.593 26.279
C 15.482 35.654 29.324
H 14.509 35.177 29.134
H 15.706 35.434 30.332
H 15.494 36.726 29.008
