137

Mg 33.838 28.925 34.198
C 30.439 28.686 34.471
C 33.636 27.029 31.339
H 33.582 26.402 30.463
C 37.117 29.26  34.047
H 38.177 29.315 33.856
C 33.847 30.357 37.393
H 33.87  30.845 38.366
N 32.244 28.009 32.963
C 30.949 28.128 33.269
C 30.03  27.557 32.159
H 29.358 26.816 32.562
C 31.044 26.816 31.245
H 30.984 27.058 30.165
C 32.397 27.319 31.871
C 30.977 25.295 31.353
H 31.7   24.853 30.687
H 31.329 24.991 32.386
H 29.978 24.748 31.33 
C 29.085 28.634 31.548
H 29.614 29.55  31.267
H 28.356 28.819 32.345
C 28.203 28.108 30.4  
H 28.078 28.933 29.742
H 28.785 27.349 29.915
C 26.821 27.559 30.828
O 26.583 26.638 31.544
O 25.825 28.249 30.192
N 35.139 28.265 32.884
C 34.888 27.452 31.748
C 36.194 27.21  31.093
C 37.209 27.902 31.865
C 36.52  28.484 33.002
C 36.377 26.484 29.797
H 37.372 26.508 29.478
H 36.188 25.413 30.015
H 35.762 26.78  28.941
C 38.69  27.93  31.621
H 39.145 28.579 30.773
C 39.54  27.266 32.431
H 39.206 26.81  33.371
H 40.64  27.388 32.319
N 35.258 29.79  35.439
C 36.581 29.888 35.135
C 37.213 30.628 36.205
C 36.267 30.827 37.219
C 35.065 30.308 36.706
C 38.725 30.942 36.265
H 39.28  30.091 36.607
H 38.9   31.006 35.199
H 38.942 31.86  36.907
C 36.431 31.589 38.513
H 35.917 31.018 39.33 
H 37.515 31.59  38.649
C 35.943 32.965 38.421
H 34.931 33.039 37.997
H 35.78  33.392 39.388
H 36.622 33.538 37.706
N 32.5   29.373 35.674
C 32.598 29.904 36.971
C 31.366 29.828 37.616
C 30.457 29.42  36.659
C 31.203 29.182 35.495
C 31.033 30.306 39.021
H 30.142 29.898 39.443
H 31.868 29.946 39.655
H 31.13  31.354 39.055
C 29.105 29.143 36.397
O 28.166 29.163 37.142
C 28.982 28.768 34.861
H 28.323 29.561 34.518
C 28.324 27.421 35.019
O 28.938 26.476 35.491
O 27.039 27.419 34.523
C 26.371 26.077 34.534
H 26.221 25.855 35.579
H 25.361 26.142 34.087
H 26.899 25.264 34.012
C 24.494 27.638 30.339
H 24.167 27.619 31.368
H 24.597 26.687 29.812
C 23.649 28.608 29.598
H 24.064 29.578 29.283
C 22.334 28.417 29.368
C 21.612 27.081 29.596
H 20.601 27.275 29.802
H 21.758 26.455 28.726
H 22.038 26.617 30.49 
C 21.68  29.438 28.429
H 21.955 30.51  28.628
H 20.581 29.373 28.431
C 22.076 29.323 26.888
H 21.327 28.995 26.21 
H 22.823 28.521 26.817
C 22.762 30.618 26.454
H 23.25  30.362 25.57 
H 23.546 30.751 27.205
C 21.822 31.874 26.288
H 21.411 31.891 27.332
C 20.561 31.693 25.391
H 20.082 32.672 25.332
H 20.898 31.492 24.391
H 19.833 30.994 25.759
C 22.649 33.118 25.882
H 21.881 33.857 25.624
H 23.233 32.858 24.94 
C 23.534 33.752 26.969
H 24.477 33.648 26.426
H 23.646 33.114 27.838
C 23.242 35.2   27.187
H 22.528 35.601 26.495
H 24.158 35.731 26.929
C 22.782 35.654 28.563
H 23.607 35.456 29.212
C 21.465 34.943 29.068
H 21.584 33.917 28.976
H 21.3   35.174 30.108
H 20.581 35.265 28.535
C 22.667 37.223 28.691
H 22.005 37.504 29.479
H 22.27  37.724 27.804
C 24.071 37.895 29.032
H 24.73  38.298 28.222
H 24.741 37.164 29.416
C 23.89  39.09  30.064
H 22.902 39.434 30.036
H 24.607 39.871 29.685
C 24.296 38.938 31.533
H 25.312 38.52  31.626
C 23.236 38.005 32.203
H 22.276 38.5   32.374
H 23.059 37.144 31.694
H 23.769 37.655 33.081
C 24.301 40.295 32.218
H 25.07  40.216 32.975
H 24.509 41.124 31.577
H 23.338 40.463 32.648
