137

Mg 22.13  17.893 26.141
C 22.224 17.612 22.666
C 25.192 19.287 26.038
H 26.258 19.549 26.045
C 21.97  18.155 29.524
H 21.875 18.203 30.592
C 19.077 16.213 26.135
H 18.143 15.56  26.067
N 23.509 18.51  24.534
C 23.328 18.304 23.206
C 24.471 18.924 22.429
H 24.909 18.163 21.779
C 25.471 19.324 23.511
H 25.506 20.449 23.473
C 24.72  18.981 24.835
C 26.912 18.572 23.317
H 26.801 17.495 23.024
H 27.311 19.097 22.393
H 27.666 18.874 24.037
C 24.067 20.056 21.448
H 23.522 20.791 21.951
H 23.395 19.691 20.703
C 25.276 20.68  20.653
H 26.165 20.33  21.183
H 25.287 20.233 19.637
C 25.591 22.207 20.579
O 25.94  22.82  19.583
O 25.285 22.806 21.784
N 23.434 18.535 27.596
C 24.647 19.193 27.357
C 25.262 19.605 28.598
C 24.38  19.273 29.65 
C 23.198 18.655 28.955
C 26.521 20.395 28.726
H 26.286 21.345 29.264
H 27.29  19.828 29.309
H 27.016 20.611 27.839
C 24.39  19.344 31.118
H 23.546 18.955 31.737
C 25.354 19.896 31.893
H 26.261 20.422 31.431
H 25.246 19.833 33.001
N 20.703 17.317 27.583
C 20.885 17.457 28.937
C 19.857 16.804 29.705
C 18.993 16.318 28.707
C 19.566 16.618 27.37 
C 19.672 16.756 31.18 
H 18.647 16.986 31.37 
H 19.851 15.773 31.606
H 20.345 17.559 31.635
C 17.817 15.436 28.928
H 17.857 14.543 28.267
H 17.918 15.054 29.92 
C 16.532 16.253 28.834
H 16.424 16.935 29.757
H 16.372 16.933 27.948
H 15.69  15.639 28.926
N 20.877 17.108 24.722
C 19.641 16.452 24.923
C 19.123 16.048 23.64 
C 20.128 16.411 22.713
C 21.117 17.133 23.408
C 17.842 15.254 23.304
H 16.913 15.837 23.562
H 17.907 15.214 22.284
H 17.96  14.367 23.856
C 20.588 16.283 21.35 
O 20.159 15.675 20.399
C 21.898 17.204 21.268
H 21.674 18.026 20.623
C 22.972 16.423 20.636
O 23.785 15.783 21.246
O 23.052 16.628 19.293
C 24.148 15.957 18.575
H 25.098 16.317 18.851
H 24.196 14.841 18.709
H 24.025 16.138 17.503
C 25.399 24.295 21.706
H 24.744 24.569 20.855
H 26.43  24.78  21.596
C 24.802 24.902 23.004
H 25.445 25.173 23.815
C 23.468 25.24  23.199
C 22.267 24.9   22.352
H 22.605 24.386 21.422
H 21.618 24.138 22.907
H 21.61  25.716 22.175
C 22.997 25.68  24.523
H 23.764 25.605 25.294
H 22.314 24.936 24.843
C 22.193 27.016 24.605
H 21.086 26.835 24.559
H 22.318 27.563 23.667
C 22.49  27.82  25.887
H 23.338 27.508 26.43 
H 21.506 27.598 26.45 
C 22.718 29.399 25.698
H 21.909 29.853 25.087
C 23.969 29.596 24.805
H 24.713 28.827 25.021
H 23.757 29.437 23.721
H 24.397 30.585 24.847
C 22.939 30.    27.112
H 23.095 31.124 26.956
H 23.947 29.673 27.418
C 21.766 29.881 28.164
H 20.95  29.371 27.636
H 21.423 30.879 28.366
C 22.005 29.175 29.466
H 22.307 29.876 30.229
H 22.752 28.396 29.295
C 20.79  28.343 29.988
H 20.413 27.728 29.141
C 19.598 29.301 30.542
H 18.745 28.744 30.855
H 19.989 29.937 31.412
H 19.257 29.967 29.747
C 21.116 27.302 31.121
H 21.823 27.822 31.817
H 21.71  26.534 30.648
C 19.99  26.594 31.815
H 20.192 25.512 31.879
H 19.109 26.565 31.114
C 19.562 27.214 33.146
H 18.548 27.578 33.024
H 20.242 28.078 33.448
C 19.508 26.244 34.349
H 18.843 25.388 33.997
C 18.938 26.999 35.564
H 19.047 26.524 36.518
H 19.158 27.984 35.615
H 17.894 26.829 35.339
C 20.796 25.622 34.883
H 20.567 24.738 35.454
H 21.366 25.352 33.979
H 21.396 26.33  35.432
