137

Mg 28.971 30.712 34.115
C 29.822 27.687 32.898
C 28.93  31.877 30.849
H 29.084 32.226 29.83 
C 28.263 33.863 35.165
H 28.21  34.796 35.639
C 29.45  29.58  37.315
H 29.541 29.187 38.355
N 29.224 29.757 32.106
C 29.586 28.526 31.846
C 29.681 28.269 30.339
H 30.692 28.029 29.974
C 29.54  29.692 29.712
H 28.754 29.675 28.942
C 29.157 30.523 30.98 
C 30.807 30.21  28.98 
H 31.614 30.303 29.708
H 31.051 29.516 28.194
H 30.563 31.212 28.581
C 28.531 27.326 29.813
H 27.553 27.827 30.057
H 28.534 26.42  30.336
C 28.491 27.114 28.247
H 27.573 27.543 27.754
H 29.217 27.689 27.771
C 28.774 25.68  27.807
O 29.855 25.21  27.469
O 27.611 24.952 27.877
N 28.687 32.574 33.165
C 28.679 32.842 31.774
C 28.357 34.225 31.592
C 28.106 34.806 32.836
C 28.315 33.685 33.788
C 28.216 34.944 30.169
H 28.779 34.311 29.517
H 27.251 35.25  29.83 
H 28.808 35.885 30.27 
C 27.685 36.132 33.281
H 26.884 36.21  33.96 
C 28.239 37.242 32.838
H 29.133 37.165 32.152
H 27.768 38.264 33.158
N 28.866 31.551 35.973
C 28.557 32.909 36.175
C 28.428 33.09  37.579
C 28.703 31.865 38.232
C 29.07  30.951 37.167
C 28.041 34.331 38.215
H 27.296 34.882 37.703
H 27.647 34.213 39.213
H 28.926 34.889 38.329
C 28.629 31.535 39.744
H 29.469 30.948 39.998
H 28.647 32.422 40.438
C 27.392 30.731 40.088
H 26.459 31.188 39.701
H 27.47  29.726 39.732
H 27.214 30.764 41.154
N 29.345 28.999 34.973
C 29.66  28.645 36.281
C 30.146 27.275 36.449
C 30.134 26.861 35.081
C 29.7   27.938 34.267
C 30.774 26.613 37.608
H 31.174 27.304 38.405
H 29.948 25.992 38.047
H 31.594 26.011 37.251
C 30.556 25.79  34.163
O 31.024 24.685 34.419
C 30.308 26.292 32.816
H 29.5   25.62  32.413
C 31.571 26.166 31.968
O 32.655 26.737 32.112
O 31.317 25.412 30.891
C 32.487 25.22  30.121
H 32.834 26.102 29.56 
H 33.273 24.799 30.809
H 32.24  24.459 29.416
C 27.843 23.574 27.509
H 28.602 23.098 28.112
H 28.17  23.485 26.443
C 26.525 22.836 27.638
H 26.068 23.111 28.588
C 25.892 21.946 26.842
C 26.513 21.394 25.569
H 27.607 21.381 25.642
H 26.038 20.404 25.494
H 26.128 22.021 24.743
C 24.491 21.397 27.289
H 24.255 21.914 28.225
H 24.401 20.276 27.309
C 23.376 21.798 26.29 
H 23.055 20.936 25.685
H 23.716 22.569 25.632
C 22.132 22.339 26.94 
H 22.01  23.352 26.623
H 22.282 22.506 28.03 
C 20.731 21.563 26.672
H 20.688 21.286 25.61 
C 19.556 22.573 26.862
H 19.704 23.089 27.833
H 19.574 23.231 26.005
H 18.584 22.046 26.829
C 20.716 20.267 27.528
H 21.729 19.795 27.456
H 20.141 19.548 27.016
C 20.252 20.419 29.005
H 19.13  20.131 28.869
H 20.399 21.496 29.231
C 20.918 19.27  29.909
H 21.805 18.857 29.365
H 20.227 18.536 30.033
C 21.622 19.782 31.224
H 21.127 20.646 31.6  
C 23.058 20.283 30.995
H 23.782 19.418 30.836
H 23.096 21.026 30.212
H 23.394 20.824 31.85 
C 21.634 18.639 32.267
H 22.511 18.856 32.888
H 21.912 17.733 31.774
C 20.406 18.385 33.138
H 19.599 19.01  32.786
H 20.598 18.691 34.135
C 20.    16.928 33.329
H 20.851 16.386 33.594
H 19.581 16.603 32.397
C 18.883 16.589 34.366
H 18.07  17.278 33.986
C 19.322 16.93  35.867
H 18.604 16.861 36.666
H 20.156 16.348 36.171
H 19.742 17.908 35.971
C 18.508 15.115 34.458
H 19.296 14.593 34.816
H 17.753 14.966 35.224
H 18.119 14.89  33.462
