137

Mg 35.2   34.784 35.582
C 31.769 35.247 34.959
C 35.237 32.689 32.735
H 35.431 32.102 31.833
C 38.413 34.549 35.945
H 39.504 34.578 36.069
C 34.95  36.797 38.3  
H 34.853 37.259 39.246
N 33.711 34.025 34.114
C 32.411 34.474 33.961
C 31.67  33.961 32.747
H 30.811 33.377 32.953
C 32.709 32.911 32.187
H 32.945 33.055 31.157
C 33.981 33.247 33.025
C 32.148 31.48  32.35 
H 31.46  31.215 31.547
H 32.969 30.778 32.303
H 31.666 31.326 33.354
C 31.285 35.07  31.771
H 32.162 35.594 31.405
H 30.813 35.914 32.304
C 30.373 34.629 30.647
H 30.803 34.794 29.697
H 30.07  33.574 30.677
C 29.089 35.361 30.62 
O 28.746 36.163 29.838
O 28.237 34.824 31.596
N 36.579 33.802 34.476
C 36.474 33.023 33.345
C 37.751 32.454 32.949
C 38.67  33.083 33.854
C 37.883 33.888 34.791
C 38.06  31.384 32.002
H 37.785 31.853 31.123
H 39.076 31.    32.004
H 37.41  30.509 32.183
C 40.141 33.005 33.93 
H 40.508 33.079 34.967
C 41.006 32.817 32.866
H 40.719 32.541 31.816
H 42.061 32.698 33.039
N 36.485 35.588 36.871
C 37.762 35.261 36.887
C 38.471 35.967 37.962
C 37.449 36.755 38.654
C 36.237 36.381 37.969
C 39.875 35.705 38.522
H 40.075 36.491 39.229
H 39.781 34.714 39.092
H 40.643 35.617 37.731
C 37.637 37.667 39.927
H 36.76  37.513 40.602
H 38.592 37.43  40.519
C 37.735 39.101 39.584
H 36.742 39.502 39.259
H 37.966 39.665 40.524
H 38.642 39.361 38.958
N 33.749 35.776 36.456
C 33.776 36.661 37.57 
C 32.428 37.075 37.835
C 31.623 36.475 36.905
C 32.488 35.749 36.077
C 31.88  37.922 38.946
H 31.11  38.578 38.514
H 31.426 37.342 39.8  
H 32.758 38.441 39.322
C 30.242 36.37  36.473
O 29.245 36.939 36.79 
C 30.309 35.508 35.249
H 29.706 36.01  34.389
C 29.576 34.178 35.601
O 29.794 33.442 36.562
O 28.679 33.945 34.609
C 27.902 32.714 34.818
H 27.336 32.848 35.749
H 27.151 32.491 34.127
H 28.583 31.873 34.868
C 26.897 35.493 31.559
H 26.269 35.051 30.74 
H 26.922 36.61  31.413
C 26.253 35.239 32.885
H 26.908 35.719 33.612
C 25.143 34.505 33.2  
C 24.354 33.634 32.276
H 23.321 33.95  32.16 
H 24.79  33.481 31.278
H 24.353 32.594 32.627
C 24.685 34.579 34.676
H 25.497 34.976 35.313
H 24.66  33.505 35.005
C 23.53  35.47  34.974
H 23.205 35.993 34.097
H 23.677 36.128 35.839
C 22.343 34.676 35.494
H 22.149 34.969 36.549
H 22.499 33.606 35.401
C 21.063 34.935 34.793
H 21.189 34.734 33.692
C 20.718 36.46  34.973
H 19.794 36.741 34.475
H 20.637 36.758 36.047
H 21.399 37.167 34.616
C 19.954 33.912 35.111
H 20.337 32.925 34.76 
H 19.173 34.12  34.415
C 19.477 33.752 36.555
H 18.478 34.142 36.642
H 19.985 34.409 37.249
C 19.421 32.295 37.   
H 19.946 31.574 36.328
H 18.366 32.088 37.05 
C 20.015 32.018 38.361
H 19.573 32.732 39.044
C 21.58  32.148 38.363
H 21.855 33.175 38.199
H 21.986 31.877 39.316
H 22.136 31.484 37.588
C 19.635 30.645 38.988
H 20.403 30.287 39.744
H 19.747 29.952 38.107
C 18.208 30.554 39.637
H 17.779 31.529 39.7  
H 18.17  30.21  40.654
C 17.279 29.633 38.864
H 17.644 29.477 37.833
H 16.333 30.124 38.77 
C 17.047 28.248 39.49 
H 16.94  28.421 40.591
C 18.29  27.391 39.191
H 18.278 26.513 39.795
H 18.112 27.063 38.183
H 19.226 27.847 39.274
C 15.815 27.525 38.861
H 15.616 26.642 39.392
H 14.814 28.024 38.961
H 15.91  27.434 37.716
