137

Mg 26.42  32.036 40.076
C 24.954 28.955 40.1  
C 23.325 33.333 39.249
H 22.38  33.794 38.967
C 27.761 35.024 40.077
H 28.108 36.051 40.153
C 29.353 30.667 41.137
H 30.273 30.115 41.396
N 24.363 31.232 39.786
C 24.023 29.947 39.936
C 22.576 29.777 39.7  
H 22.439 29.076 38.891
C 22.087 31.118 39.175
H 21.25  31.469 39.823
C 23.278 31.972 39.468
C 21.751 31.294 37.692
H 21.435 32.333 37.635
H 22.607 31.067 36.996
H 20.87  30.678 37.456
C 21.652 29.189 40.877
H 21.595 29.879 41.76 
H 22.166 28.318 41.335
C 20.307 28.653 40.316
H 20.356 28.604 39.181
H 20.15  27.608 40.634
C 19.033 29.401 40.853
O 18.333 29.049 41.787
O 18.953 30.57  40.097
N 25.594 34.013 39.955
C 24.392 34.257 39.432
C 24.321 35.761 39.226
C 25.572 36.272 39.509
C 26.387 35.099 39.884
C 23.102 36.458 38.797
H 22.544 35.868 38.099
H 22.5   36.696 39.614
H 23.319 37.455 38.289
C 26.071 37.683 39.536
H 27.047 37.842 39.123
C 25.446 38.65  40.225
H 24.364 38.391 40.414
H 25.874 39.681 40.537
N 28.319 32.705 40.522
C 28.646 34.031 40.402
C 30.081 34.168 40.619
C 30.565 32.95  41.007
C 29.414 32.057 40.964
C 30.75  35.415 40.488
H 31.829 35.381 40.566
H 30.515 35.898 39.564
H 30.383 36.083 41.309
C 32.043 32.694 41.336
H 32.621 32.213 40.508
H 32.587 33.66  41.556
C 32.147 32.066 42.712
H 32.951 31.37  42.876
H 32.272 32.865 43.343
H 31.235 31.672 43.035
N 27.075 30.242 40.377
C 28.315 29.776 40.849
C 28.325 28.377 40.792
C 27.064 27.94  40.484
C 26.326 29.154 40.332
C 29.472 27.496 41.074
H 30.304 27.831 40.404
H 29.732 27.543 42.171
H 29.254 26.424 40.848
C 26.197 26.79  40.25 
O 26.292 25.584 40.239
C 24.746 27.463 40.043
H 24.018 27.213 40.798
C 24.359 26.937 38.72 
O 24.645 27.389 37.613
O 23.403 25.944 38.851
C 22.814 25.374 37.614
H 22.297 24.448 37.71 
H 22.162 26.074 37.061
H 23.606 25.03  37.085
C 18.06  31.505 40.675
H 18.37  31.84  41.691
H 17.068 31.026 40.805
C 17.95  32.64  39.638
H 17.375 32.558 38.708
C 18.658 33.783 39.646
C 19.724 34.086 40.716
H 20.143 33.202 41.196
H 20.5   34.803 40.377
H 19.204 34.67  41.522
C 18.455 34.889 38.548
H 17.737 34.498 37.819
H 19.445 35.011 38.148
C 18.121 36.31  38.982
H 19.032 36.909 38.626
H 18.111 36.426 40.073
C 16.88  36.959 38.401
H 16.376 37.415 39.33 
H 16.258 36.196 37.988
C 17.178 38.098 37.41 
H 17.84  38.813 37.964
C 15.917 38.926 37.007
H 16.061 39.47  36.039
H 14.984 38.317 36.837
H 15.797 39.773 37.674
C 18.008 37.609 36.232
H 18.936 37.09  36.441
H 18.152 38.542 35.7  
C 17.342 36.592 35.352
H 16.328 36.371 35.633
H 17.854 35.668 35.504
C 17.421 36.919 33.847
H 18.068 37.814 33.723
H 16.393 37.249 33.551
C 18.048 35.826 32.894
H 18.547 35.189 33.578
C 19.173 36.449 32.022
H 19.829 35.799 31.494
H 18.746 37.01  31.192
H 19.75  37.098 32.657
C 17.126 35.008 32.085
H 16.554 35.612 31.396
H 16.323 34.624 32.687
C 17.827 33.877 31.273
H 17.254 32.963 31.536
H 18.813 33.654 31.632
C 17.758 33.995 29.763
H 18.788 33.882 29.673
H 17.579 35.03  29.506
C 16.872 32.989 28.908
H 17.103 31.965 29.281
C 17.177 33.111 27.415
H 16.639 32.372 26.802
H 16.968 34.131 27.138
H 18.277 32.977 27.12 
C 15.304 33.131 29.145
H 14.851 32.284 28.613
H 15.132 33.006 30.204
H 15.039 34.168 28.772
