137

Mg 24.135 27.503 42.072
C 22.554 24.397 42.004
C 25.383 26.884 39.006
H 25.765 26.661 38.039
C 25.679 30.545 42.163
H 26.1   31.469 42.182
C 23.024 28.039 45.243
H 22.663 28.125 46.184
N 23.916 25.881 40.637
C 23.096 24.741 40.731
C 22.999 23.899 39.417
H 23.493 22.966 39.701
C 23.926 24.8   38.53 
H 23.286 25.156 37.677
C 24.487 25.893 39.432
C 25.    23.912 37.945
H 25.831 23.686 38.648
H 24.655 22.914 37.604
H 25.554 24.42  37.148
C 21.501 23.803 38.872
H 21.097 24.683 38.437
H 20.886 23.509 39.746
C 21.306 22.804 37.77 
H 22.252 22.531 37.433
H 20.936 21.85  38.189
C 20.577 23.286 36.529
O 21.197 24.008 35.678
O 19.377 22.676 36.304
N 25.388 28.544 40.796
C 25.805 28.133 39.555
C 26.686 29.211 38.987
C 26.919 30.085 40.009
C 25.957 29.771 41.041
C 27.32  29.06  37.639
H 27.821 28.108 37.535
H 26.793 29.158 36.679
H 28.024 29.897 37.804
C 27.793 31.294 40.06 
H 28.276 31.469 40.965
C 27.876 32.264 39.113
H 27.462 32.214 37.995
H 28.486 33.17  39.32 
N 24.177 29.156 43.486
C 24.874 30.314 43.286
C 24.79  31.16  44.432
C 23.957 30.489 45.355
C 23.687 29.175 44.694
C 25.546 32.462 44.546
H 25.294 32.772 45.571
H 26.621 32.213 44.495
H 25.273 33.246 43.87 
C 23.374 30.971 46.731
H 23.65  30.223 47.534
H 23.702 31.971 46.966
C 21.824 31.074 46.679
H 21.33  30.127 47.018
H 21.5   31.808 47.319
H 21.495 31.442 45.686
N 23.129 26.368 43.403
C 22.732 26.753 44.672
C 22.054 25.681 45.322
C 22.052 24.689 44.306
C 22.575 25.218 43.127
C 21.538 25.644 46.747
H 21.125 26.623 46.938
H 20.755 24.873 46.902
H 22.488 25.476 47.319
C 21.558 23.359 43.97 
O 21.001 22.519 44.676
C 21.776 23.127 42.485
H 20.807 23.012 42.027
C 22.615 21.928 42.202
O 23.68  21.736 42.783
O 22.085 21.17  41.205
C 22.996 20.027 41.02 
H 22.548 19.309 40.352
H 23.938 20.44  40.609
H 23.296 19.441 41.984
C 18.715 23.309 35.16 
H 19.368 23.316 34.276
H 18.542 24.344 35.573
C 17.4   22.686 34.842
H 16.678 22.712 35.72 
C 17.066 22.226 33.609
C 17.895 22.234 32.276
H 18.177 21.231 32.13 
H 17.222 22.636 31.537
H 18.815 22.836 32.275
C 15.779 21.471 33.397
H 15.359 21.379 34.418
H 16.111 20.487 32.974
C 14.719 22.106 32.412
H 14.723 21.649 31.415
H 14.822 23.222 32.315
C 13.345 21.801 32.973
H 13.299 21.469 33.986
H 13.114 20.836 32.416
C 12.134 22.753 32.613
H 12.24  23.613 33.262
C 10.754 22.292 33.043
H 10.011 23.001 32.763
H 10.446 21.344 32.584
H 10.723 22.12  34.077
C 12.073 23.189 31.1  
H 12.986 23.712 30.865
H 11.254 23.96  31.192
C 11.797 22.098 30.015
H 11.668 21.051 30.379
H 12.612 22.079 29.349
C 10.536 22.342 29.141
H 10.341 23.4   29.182
H  9.581 21.828 29.543
C 10.559 21.957 27.665
H 11.331 22.512 27.135
C  9.158 22.259 26.943
H  8.467 21.434 27.208
H  8.696 23.166 27.291
H  9.404 22.129 25.9  
C 10.903 20.429 27.479
H 10.08  19.926 28.074
H 11.785 20.165 27.98 
C 10.845 19.914 26.025
H 11.427 20.604 25.5  
H  9.866 19.947 25.579
C 11.306 18.489 25.874
H 10.456 17.916 25.787
H 11.841 18.027 26.697
C 12.238 18.243 24.639
H 13.285 18.636 24.766
C 11.593 18.721 23.323
H 10.672 18.142 23.082
H 11.315 19.753 23.196
H 12.26  18.363 22.561
C 12.359 16.696 24.555
H 12.932 16.237 23.775
H 12.811 16.453 25.554
H 11.445 16.179 24.522
