137

Mg 33.386 31.155 36.165
C 31.482 29.004 34.345
C 35.902 30.856 33.758
H 36.708 30.775 33.07 
C 35.475 33.123 38.065
H 36.128 33.805 38.574
C 30.972 31.182 38.61 
H 30.162 31.14  39.382
N 33.603 30.123 34.194
C 32.69  29.278 33.639
C 33.079 28.831 32.222
H 33.181 27.796 32.144
C 34.575 29.358 32.08 
H 34.58  30.01  31.193
C 34.688 30.158 33.439
C 35.649 28.31  31.887
H 35.421 27.675 32.758
H 35.525 27.795 30.962
H 36.608 28.737 32.09 
C 32.031 29.309 31.182
H 32.122 30.437 31.111
H 31.062 28.925 31.409
C 32.272 28.768 29.797
H 32.807 29.539 29.273
H 32.883 27.829 29.843
C 31.092 28.387 28.965
O 30.777 28.947 27.95 
O 30.368 27.493 29.626
N 35.256 31.935 35.9  
C 36.07  31.82  34.807
C 37.3   32.623 34.961
C 37.216 33.336 36.209
C 35.912 32.814 36.788
C 38.442 32.715 33.937
H 39.27  32.026 34.031
H 37.983 32.433 32.973
H 38.666 33.762 33.797
C 38.189 34.331 36.829
H 37.816 35.007 37.604
C 39.491 34.493 36.408
H 39.903 33.849 35.633
H 40.246 35.143 36.881
N 33.283 31.978 38.007
C 34.218 32.805 38.595
C 33.704 33.136 39.963
C 32.498 32.42  40.179
C 32.225 31.84  38.945
C 34.502 33.862 40.994
H 34.2   34.886 41.145
H 34.319 33.297 41.875
H 35.552 33.798 40.696
C 31.706 32.38  41.446
H 31.298 31.439 41.71 
H 32.367 32.63  42.225
C 30.585 33.464 41.435
H 29.769 33.268 42.077
H 31.024 34.415 41.721
H 30.165 33.587 40.468
N 31.614 30.335 36.447
C 30.698 30.467 37.43 
C 29.469 29.665 37.164
C 29.687 29.055 35.952
C 31.068 29.44  35.556
C 28.261 29.508 38.037
H 28.055 28.435 38.226
H 28.285 29.967 38.996
H 27.3   29.831 37.488
C 29.156 28.189 34.94 
O 28.089 27.647 34.848
C 30.344 28.07  33.869
H 29.949 28.36  32.869
C 30.68  26.64  33.853
O 31.139 26.083 34.823
O 30.414 26.033 32.624
C 31.035 24.735 32.578
H 32.128 24.752 32.854
H 30.394 24.096 33.161
H 30.947 24.444 31.568
C 29.127 27.002 29.036
H 29.279 26.506 28.077
H 28.443 27.855 28.784
C 28.26  26.262 30.034
H 28.068 26.76  30.933
C 27.74  25.028 29.882
C 27.916 24.185 28.645
H 28.034 24.697 27.661
H 28.834 23.63  28.822
H 27.109 23.389 28.636
C 26.839 24.464 30.903
H 26.827 25.182 31.738
H 27.303 23.586 31.425
C 25.287 24.3   30.509
H 25.171 23.38  29.975
H 24.976 25.073 29.763
C 24.321 24.408 31.734
H 23.783 25.37  31.6  
H 24.818 24.481 32.71 
C 23.125 23.439 31.739
H 23.484 22.346 31.746
C 22.185 23.425 30.382
H 22.752 23.193 29.411
H 21.424 22.644 30.481
H 21.582 24.271 30.119
C 22.315 23.608 33.007
H 22.757 23.311 33.952
H 21.555 22.86  32.86 
C 21.578 24.938 33.218
H 20.509 24.712 33.305
H 21.647 25.596 32.369
C 22.034 25.705 34.401
H 22.124 26.768 34.177
H 23.016 25.395 34.621
C 21.078 25.453 35.592
H 20.138 25.834 35.289
C 21.713 26.402 36.693
H 21.8   27.426 36.414
H 21.149 26.379 37.603
H 22.683 26.094 37.058
C 20.893 23.962 36.11 
H 21.933 23.631 36.4  
H 20.729 23.328 35.251
C 19.779 23.77  37.188
H 18.911 23.213 36.908
H 19.182 24.674 37.401
C 20.337 23.335 38.551
H 20.265 24.206 39.192
H 21.374 23.048 38.657
C 19.455 22.161 39.216
H 19.567 21.306 38.555
C 17.913 22.535 39.348
H 17.323 21.887 40.012
H 17.957 23.58  39.689
H 17.495 22.57  38.33 
C 20.037 21.777 40.638
H 19.249 21.172 41.055
H 21.057 21.349 40.56 
H 20.217 22.691 41.186
