137

Mg 29.209 27.91  41.782
C 25.786 27.741 41.745
C 29.11  27.774 38.388
H 29.12  27.635 37.35 
C 32.544 27.67  41.849
H 33.639 27.521 41.745
C 29.133 27.725 45.199
H 29.016 27.587 46.344
N 27.582 27.693 40.207
C 26.249 27.7   40.442
C 25.459 27.719 39.104
H 24.743 26.874 39.176
C 26.596 27.455 38.075
H 26.769 28.321 37.44 
C 27.881 27.632 38.936
C 26.375 26.265 37.144
H 27.236 26.14  36.424
H 26.324 25.399 37.903
H 25.508 26.566 36.539
C 24.729 28.998 38.901
H 25.449 29.826 38.737
H 24.056 29.233 39.733
C 23.793 29.043 37.725
H 24.271 28.662 36.797
H 22.841 28.539 37.931
C 23.432 30.434 37.291
O 24.218 31.374 37.299
O 22.132 30.496 36.847
N 30.571 27.833 40.359
C 30.371 27.835 38.966
C 31.63  27.951 38.301
C 32.593 27.82  39.299
C 31.918 27.744 40.554
C 31.744 28.221 36.757
H 30.939 28.87  36.554
H 32.715 28.645 36.575
H 31.644 27.311 36.209
C 34.044 27.76  39.239
H 34.714 28.044 40.052
C 34.644 27.283 38.138
H 34.096 27.029 37.243
H 35.757 27.05  38.114
N 30.617 27.659 43.293
C 31.94  27.658 43.097
C 32.646 27.544 44.369
C 31.632 27.592 45.363
C 30.378 27.682 44.663
C 34.1   27.457 44.516
H 34.5   28.136 45.264
H 34.34  26.451 44.803
H 34.71  27.544 43.552
C 31.904 27.523 46.839
H 32.009 26.51  47.157
H 32.933 27.781 46.951
C 31.248 28.599 47.77 
H 31.578 28.363 48.791
H 31.787 29.515 47.532
H 30.204 28.693 47.702
N 27.828 27.797 43.227
C 27.957 27.747 44.591
C 26.673 27.692 45.239
C 25.769 27.64  44.168
C 26.547 27.747 42.963
C 26.414 27.696 46.653
H 25.358 27.762 46.961
H 26.844 26.863 47.132
H 26.793 28.687 46.841
C 24.359 27.666 43.806
O 23.322 27.607 44.484
C 24.284 27.693 42.196
H 23.703 28.615 41.972
C 23.493 26.415 41.768
O 23.873 25.262 41.726
O 22.318 26.694 41.178
C 21.451 25.702 40.515
H 21.744 25.727 39.504
H 21.718 24.693 40.829
H 20.44  25.924 40.549
C 21.555 31.833 36.619
H 22.143 32.283 35.8  
H 21.653 32.523 37.459
C 20.175 31.612 36.015
H 20.054 30.945 35.128
C 19.04  32.141 36.432
C 18.796 32.918 37.639
H 19.623 32.638 38.294
H 18.806 34.014 37.585
H 17.934 32.579 38.108
C 17.826 31.686 35.643
H 18.176 31.841 34.662
H 17.164 32.534 35.739
C 17.064 30.353 36.006
H 15.95  30.544 36.169
H 17.453 29.987 36.972
C 17.349 29.378 34.842
H 18.224 28.866 35.279
H 17.817 29.823 33.944
C 16.228 28.245 34.609
H 16.029 27.87  35.569
C 16.804 27.036 33.825
H 15.946 26.452 33.701
H 17.001 27.289 32.835
H 17.624 26.578 34.344
C 14.908 28.805 33.979
H 14.569 29.681 34.564
H 14.073 28.111 34.202
C 14.782 29.138 32.5  
H 15.748 28.981 32.032
H 14.46  30.202 32.484
C 13.554 28.542 31.724
H 12.954 29.336 31.386
H 13.068 27.922 32.523
C 13.916 27.694 30.525
H 14.751 27.098 30.926
C 14.609 28.484 29.371
H 13.948 29.152 28.896
H 15.517 29.018 29.679
H 14.827 27.785 28.506
C 12.6   26.873 30.095
H 11.866 27.559 29.595
H 12.168 26.395 31.002
C 12.867 25.645 29.148
H 12.831 24.79  29.773
H 13.786 25.784 28.642
C 11.812 25.364 28.103
H 10.865 25.797 28.365
H 11.628 24.215 28.186
C 12.327 25.631 26.649
H 13.362 25.294 26.507
C 12.332 27.174 26.392
H 13.105 27.61  27.01 
H 12.549 27.45  25.406
H 11.4   27.64  26.768
C 11.466 24.893 25.582
H 11.897 25.18  24.709
H 11.633 23.886 25.647
H 10.408 25.024 25.694
