137

Mg 26.461 30.074 38.003
C 25.465 27.485 40.019
C 26.311 28.03  35.325
H 26.235 27.386 34.427
C 27.797 32.597 36.166
H 28.256 33.343 35.523
C 26.862 32.022 40.862
H 27.015 32.598 41.783
N 25.955 28.01  37.715
C 25.602 27.128 38.642
C 25.341 25.676 38.102
H 26.075 24.956 38.522
C 25.85  25.898 36.595
H 24.933 25.77  36.004
C 26.022 27.436 36.485
C 27.188 25.021 36.143
H 28.035 25.366 36.735
H 27.212 24.005 36.532
H 27.188 24.921 35.06 
C 23.893 25.152 38.271
H 23.109 25.87  37.961
H 23.841 24.887 39.387
C 23.41  23.849 37.499
H 24.147 23.339 36.952
H 23.073 23.127 38.224
C 22.128 23.873 36.619
O 21.556 24.869 36.241
O 21.86  22.532 36.206
N 26.931 30.277 36.054
C 26.85  29.291 35.073
C 27.318 29.842 33.82 
C 27.629 31.196 34.039
C 27.502 31.394 35.459
C 27.305 29.006 32.524
H 26.982 29.742 31.776
H 28.305 28.831 32.15 
H 26.638 28.199 32.623
C 28.049 32.34  33.14 
H 27.708 33.305 33.43 
C 28.901 32.065 32.161
H 29.207 31.008 32.026
H 29.407 32.85  31.551
N 27.112 32.027 38.376
C 27.666 32.906 37.511
C 28.204 34.036 38.233
C 27.987 33.832 39.542
C 27.337 32.569 39.634
C 28.839 35.236 37.611
H 27.993 35.77  37.195
H 29.494 35.827 38.317
H 29.431 34.891 36.753
C 28.334 34.797 40.681
H 28.988 34.374 41.399
H 28.799 35.74  40.272
C 27.108 35.309 41.462
H 26.292 34.673 41.416
H 27.439 35.583 42.496
H 26.73  36.273 41.087
N 26.212 29.868 40.052
C 26.373 30.722 41.11 
C 26.081 30.055 42.366
C 25.732 28.768 42.007
C 25.789 28.708 40.56 
C 26.127 30.778 43.69 
H 25.887 31.81  43.444
H 25.473 30.286 44.391
H 27.15  30.62  44.046
C 25.269 27.423 42.482
O 25.071 27.082 43.658
C 25.165 26.518 41.21 
H 24.142 26.136 41.231
C 26.166 25.525 41.387
O 27.279 25.692 41.732
O 25.679 24.311 41.103
C 26.575 23.106 41.171
H 26.077 22.203 40.797
H 27.444 23.308 40.513
H 26.988 23.074 42.234
C 20.627 22.279 35.49 
H 20.46  22.87  34.568
H 19.746 22.471 36.093
C 20.732 20.808 35.133
H 20.336 20.057 35.778
C 21.139 20.281 33.908
C 21.527 21.056 32.653
H 20.87  20.808 31.765
H 21.276 22.154 32.739
H 22.58  20.807 32.465
C 20.962 18.786 33.677
H 20.608 18.429 34.613
H 21.925 18.284 33.406
C 19.92  18.276 32.695
H 19.289 19.138 32.504
H 19.276 17.573 33.194
C 20.512 17.715 31.396
H 21.608 17.837 31.368
H 19.945 18.278 30.654
C 20.198 16.228 31.167
H 20.719 15.785 32.04 
C 20.916 15.708 29.894
H 20.494 16.091 28.948
H 22.014 15.856 29.896
H 20.735 14.559 29.76 
C 18.662 15.803 31.121
H 18.333 15.837 32.188
H 18.579 14.809 30.766
C 17.782 16.784 30.26 
H 18.455 17.192 29.516
H 17.443 17.551 30.932
C 16.534 16.091 29.593
H 15.505 16.139 30.08 
H 16.707 14.961 29.67 
C 16.315 16.454 28.071
H 17.229 16.664 27.639
C 15.527 17.742 27.83 
H 15.499 17.842 26.76 
H 14.526 17.667 28.243
H 16.099 18.59  28.123
C 15.572 15.265 27.365
H 15.253 15.719 26.434
H 14.74  14.886 27.972
C 16.351 14.075 26.891
H 17.391 14.252 27.222
H 16.322 13.988 25.773
C 15.831 12.732 27.462
H 15.061 12.826 28.236
H 16.681 12.161 27.803
C 15.151 11.841 26.47 
H 15.757 11.919 25.565
C 13.706 12.294 25.998
H 13.029 12.483 26.846
H 13.935 13.278 25.586
H 13.257 11.672 25.232
C 15.215 10.441 26.983
H 16.226 10.072 27.024
H 14.782 10.419 27.981
H 14.709  9.803 26.272
