137

Mg 20.263 19.555 25.215
C 22.653 19.345 22.654
C 21.982 22.087 26.492
H 22.596 22.88  26.944
C 17.693 20.038 27.391
H 16.999 20.344 28.093
C 18.446 17.186 23.642
H 17.776 16.455 23.083
N 21.985 20.756 24.551
C 22.867 20.435 23.511
C 24.052 21.367 23.499
H 24.917 20.712 23.505
C 23.919 22.18  24.855
H 23.946 23.287 24.684
C 22.518 21.709 25.286
C 25.049 21.887 25.9  
H 25.195 20.866 26.059
H 25.88  22.311 25.418
H 24.75  22.354 26.866
C 24.079 22.232 22.259
H 23.269 22.906 22.353
H 24.034 21.656 21.317
C 25.329 23.06  22.073
H 25.979 22.874 22.902
H 25.872 22.746 21.236
C 25.206 24.565 21.791
O 25.572 25.127 20.796
O 24.678 25.206 22.912
N 19.925 20.882 26.68 
C 20.781 21.811 27.138
C 20.247 22.432 28.266
C 19.031 21.815 28.572
C 18.82  20.87  27.497
C 21.035 23.445 29.089
H 21.847 22.849 29.576
H 21.535 24.187 28.433
H 20.446 23.999 29.788
C 18.135 22.07  29.672
H 17.075 22.3   29.309
C 18.378 22.012 30.989
H 19.382 21.735 31.299
H 17.623 22.267 31.762
N 18.431 18.704 25.555
C 17.465 19.115 26.393
C 16.226 18.378 26.191
C 16.464 17.597 25.078
C 17.878 17.774 24.744
C 15.096 18.537 27.153
H 14.494 17.56  27.359
H 15.484 18.767 28.109
H 14.404 19.338 26.767
C 15.384 16.657 24.452
H 15.858 15.654 24.456
H 14.544 16.506 25.191
C 14.875 17.07  23.081
H 15.524 16.452 22.45 
H 13.858 16.799 22.981
H 15.087 18.109 22.893
N 20.455 18.45  23.62 
C 19.657 17.465 23.08 
C 20.195 17.003 21.796
C 21.416 17.611 21.649
C 21.497 18.535 22.734
C 19.459 15.958 20.953
H 19.446 15.017 21.514
H 18.442 16.327 20.576
H 20.176 15.834 20.11 
C 22.667 17.707 20.878
O 23.04  17.017 19.928
C 23.498 18.825 21.544
H 23.697 19.601 20.748
C 24.818 18.237 21.922
O 24.935 17.298 22.702
O 25.807 18.71  21.137
C 27.166 18.132 21.413
H 27.456 18.479 22.422
H 27.208 17.04  21.342
H 27.921 18.384 20.711
C 24.888 26.655 22.919
H 24.527 27.108 21.971
H 25.987 26.853 23.083
C 24.062 27.459 23.857
H 23.054 27.805 23.47 
C 24.518 28.042 25.047
C 25.844 27.722 25.743
H 25.694 27.309 26.728
H 26.599 27.145 25.161
H 26.276 28.653 26.023
C 23.493 28.952 25.732
H 23.585 28.821 26.803
H 22.506 28.675 25.366
C 23.686 30.446 25.317
H 24.568 30.497 24.605
H 23.99  30.896 26.299
C 22.546 31.232 24.726
H 21.61  30.637 24.81 
H 22.715 31.372 23.641
C 22.103 32.54  25.449
H 22.916 33.076 25.87 
C 21.186 32.218 26.577
H 20.211 31.783 26.297
H 21.775 31.68  27.235
H 21.014 33.167 27.071
C 21.325 33.462 24.391
H 20.779 34.198 24.973
H 20.582 32.869 23.927
C 22.217 34.089 23.277
H 21.873 33.788 22.329
H 23.248 33.633 23.251
C 22.396 35.568 23.366
H 23.466 35.708 23.651
H 21.78  35.963 24.235
C 21.967 36.491 22.159
H 22.29  35.924 21.309
C 22.775 37.843 22.149
H 22.436 38.522 21.361
H 22.606 38.378 23.11 
H 23.769 37.653 21.927
C 20.415 36.754 22.01 
H 20.052 37.402 22.802
H 19.926 35.855 22.183
C 19.994 37.369 20.714
H 19.301 36.633 20.247
H 20.871 37.466 20.01 
C 19.234 38.675 20.923
H 19.906 39.403 20.372
H 19.016 38.923 21.939
C 17.8   38.631 20.179
H 17.947 38.331 19.166
C 17.254 40.079 20.08 
H 18.023 40.632 19.538
H 16.318 39.964 19.439
H 16.979 40.506 21.076
C 16.784 37.708 20.971
H 17.051 36.661 20.851
H 16.821 38.061 22.024
H 15.733 37.797 20.614
