137

Mg 35.654 32.499 35.628
C 33.163 31.164 33.538
C 37.921 31.205 33.547
H 38.603 30.756 32.817
C 37.901 33.14  38.044
H 38.585 33.38  38.84 
C 33.008 33.514 37.741
H 32.177 33.978 38.29 
N 35.578 31.405 33.777
C 34.487 30.994 33.084
C 34.817 30.478 31.705
H 34.304 29.49  31.511
C 36.326 30.246 31.8  
H 36.776 30.698 31.002
C 36.638 31.057 33.086
C 36.728 28.706 31.835
H 36.412 28.291 32.785
H 36.416 28.256 30.873
H 37.837 28.72  31.852
C 34.337 31.437 30.545
H 34.994 32.326 30.422
H 33.381 31.925 30.895
C 34.186 30.82  29.172
H 34.953 31.234 28.52 
H 34.423 29.722 29.162
C 32.792 31.111 28.46 
O 32.63  31.936 27.555
O 31.91  30.135 28.843
N 37.623 32.283 35.736
C 38.406 31.8   34.777
C 39.802 32.07  35.17 
C 39.77  32.606 36.483
C 38.386 32.693 36.831
C 40.992 31.75  34.293
H 40.588 31.358 33.396
H 41.683 32.533 34.094
H 41.533 30.854 34.645
C 40.884 33.019 37.337
H 40.712 33.359 38.329
C 42.211 32.734 37.181
H 42.533 32.235 36.261
H 43.023 32.873 37.893
N 35.514 33.297 37.529
C 36.575 33.429 38.369
C 36.126 34.051 39.633
C 34.719 34.262 39.492
C 34.342 33.719 38.173
C 37.054 34.465 40.707
H 37.629 35.28  40.302
H 36.561 34.721 41.601
H 37.787 33.686 40.922
C 33.76  34.905 40.558
H 33.011 34.168 40.878
H 34.323 35.193 41.447
C 33.078 36.197 39.912
H 32.659 36.934 40.674
H 33.753 36.691 39.233
H 32.173 35.905 39.491
N 33.565 32.468 35.66 
C 32.609 32.921 36.572
C 31.226 32.738 36.093
C 31.432 32.063 34.93 
C 32.818 31.905 34.686
C 29.9   33.013 36.719
H 29.761 34.102 36.654
H 29.01  32.596 36.192
H 29.897 32.629 37.675
C 30.755 31.329 33.84 
O 29.563 31.18  33.627
C 31.845 30.745 32.902
H 31.625 31.134 31.89 
C 31.63  29.315 32.893
O 31.329 28.586 33.802
O 31.812 28.803 31.648
C 31.401 27.502 31.354
H 30.335 27.254 31.512
H 31.686 27.415 30.295
H 31.944 26.731 31.835
C 30.595 30.31  28.215
H 30.758 30.245 27.155
H 30.123 31.304 28.485
C 29.683 29.178 28.676
H 29.418 29.169 29.727
C 29.132 28.111 27.997
C 29.199 27.986 26.488
H 29.608 27.045 26.19 
H 28.262 27.99  26.113
H 29.97  28.654 25.985
C 28.358 26.995 28.679
H 28.361 27.176 29.693
H 28.924 26.083 28.578
C 26.9   26.878 28.349
H 26.834 25.866 28.04 
H 26.771 27.581 27.545
C 25.906 27.279 29.5  
H 25.209 28.033 29.059
H 26.423 27.814 30.352
C 25.071 26.069 30.089
H 25.955 25.348 30.363
C 24.296 25.186 29.075
H 23.31  24.927 29.47 
H 24.195 25.779 28.186
H 24.833 24.281 28.879
C 24.35  26.299 31.469
H 25.171 26.537 32.216
H 23.929 25.28  31.787
C 23.135 27.235 31.266
H 22.178 26.594 31.47 
H 22.949 27.66  30.251
C 23.121 28.261 32.424
H 22.852 29.268 32.043
H 24.134 28.349 32.69 
C 22.257 27.821 33.636
H 21.35  27.328 33.259
C 21.729 29.032 34.375
H 20.892 29.479 33.92 
H 21.3   28.667 35.27 
H 22.479 29.728 34.698
C 23.051 26.792 34.563
H 23.854 27.31  34.951
H 23.522 26.021 33.98 
C 22.177 26.106 35.622
H 21.954 25.048 35.434
H 21.161 26.531 35.593
C 22.84  26.086 36.965
H 22.561 26.991 37.488
H 23.928 26.015 36.877
C 22.385 24.89  37.848
H 22.445 23.944 37.244
C 20.977 24.912 38.427
H 20.794 23.958 38.893
H 20.771 25.737 39.047
H 20.184 25.054 37.633
C 23.297 24.595 38.978
H 24.259 24.391 38.563
H 23.356 25.41  39.674
H 22.99  23.679 39.631
