137

Mg 31.047 29.214 36.438
C 28.358 28.717 38.558
C 28.956 29.111 33.794
H 28.449 28.978 32.832
C 33.744 29.76  34.383
H 34.584 29.909 33.68 
C 33.258 29.234 39.209
H 33.92  29.315 40.056
N 28.926 29.047 36.23 
C 27.967 28.771 37.224
C 26.503 28.802 36.677
H 25.988 27.913 37.022
C 26.739 28.682 35.11 
H 26.241 29.566 34.563
C 28.313 28.974 35.033
C 26.168 27.448 34.416
H 25.11  27.286 34.783
H 26.165 27.499 33.312
H 26.668 26.538 34.754
C 25.774 30.112 37.115
H 26.044 30.863 36.384
H 26.055 30.496 38.173
C 24.265 30.015 37.12 
H 23.988 28.987 37.073
H 23.777 30.349 38.066
C 23.467 30.766 36.061
O 22.657 31.635 36.274
O 23.687 30.184 34.869
N 31.271 29.487 34.471
C 30.31  29.355 33.539
C 30.907 29.44  32.18 
C 32.285 29.62  32.382
C 32.481 29.635 33.83 
C 30.074 29.431 30.886
H 29.395 30.258 30.87 
H 30.731 29.477 30.036
H 29.533 28.498 30.9  
C 33.475 29.662 31.46 
H 34.325 29.007 31.727
C 33.556 30.33  30.305
H 32.739 30.913 29.858
H 34.433 30.294 29.653
N 33.186 29.524 36.731
C 34.076 29.707 35.75 
C 35.406 29.991 36.329
C 35.338 29.778 37.708
C 33.857 29.469 37.922
C 36.585 30.253 35.456
H 36.573 29.684 34.557
H 36.536 31.337 35.314
H 37.538 30.128 35.964
C 36.489 29.812 38.673
H 36.411 29.033 39.39 
H 37.345 29.666 38.058
C 36.423 31.082 39.476
H 35.637 31.139 40.204
H 37.34  31.157 40.075
H 36.319 31.873 38.794
N 30.901 28.937 38.435
C 31.872 29.048 39.451
C 31.15  28.653 40.7  
C 29.767 28.644 40.422
C 29.686 28.765 39.025
C 31.624 28.513 42.065
H 31.178 27.669 42.554
H 32.62  28.422 42.182
H 31.233 29.376 42.606
C 28.49  28.47  40.968
O 28.14  28.37  42.122
C 27.538 28.544 39.786
H 26.837 29.353 40.08 
C 26.746 27.266 39.622
O 27.094 26.197 39.169
O 25.458 27.537 39.923
C 24.539 26.378 39.817
H 24.464 26.006 38.757
H 25.049 25.557 40.389
H 23.554 26.693 40.09 
C 23.053 30.748 33.679
H 23.366 31.734 33.449
H 21.976 30.854 33.759
C 23.496 29.804 32.537
H 24.452 30.052 32.124
C 22.779 28.749 32.008
C 21.484 28.195 32.606
H 21.354 27.124 32.465
H 21.533 28.317 33.647
H 20.637 28.76  32.286
C 23.103 28.268 30.558
H 23.695 29.09  30.073
H 22.098 28.195 30.069
C 23.902 26.928 30.257
H 23.879 26.307 31.137
H 24.935 27.128 30.073
C 23.286 26.265 28.934
H 24.074 26.123 28.164
H 22.621 26.957 28.474
C 22.621 24.873 29.086
H 23.333 24.34  29.679
C 22.272 24.132 27.766
H 23.235 24.167 27.232
H 21.949 23.146 28.002
H 21.488 24.681 27.209
C 21.289 24.822 29.982
H 21.52  25.293 30.961
H 21.039 23.724 30.103
C 20.098 25.669 29.337
H 19.726 25.081 28.512
H 20.481 26.691 29.115
C 18.936 25.806 30.279
H 19.231 26.469 31.158
H 18.766 24.807 30.758
C 17.632 26.397 29.763
H 17.352 25.779 28.939
C 17.747 27.892 29.316
H 18.032 28.586 30.064
H 18.414 27.966 28.48 
H 16.814 28.25  28.958
C 16.404 26.238 30.854
H 16.6   26.935 31.636
H 16.404 25.229 31.296
C 14.988 26.256 30.289
H 15.258 26.26  29.254
H 14.491 27.195 30.533
C 14.023 25.09  30.63 
H 14.489 24.479 31.415
H 14.039 24.354 29.749
C 12.599 25.501 31.081
H 12.636 26.097 32.016
C 11.844 24.226 31.359
H 12.247 23.712 32.225
H 10.834 24.459 31.573
H 11.933 23.513 30.51 
C 11.839 26.486 30.116
H 10.763 26.51  30.332
H 12.006 27.532 30.113
H 11.962 26.037 29.13 
