137

Mg 20.138 26.302 32.499
C 21.992 24.072 34.183
C 18.395 26.953 35.396
H 17.755 27.257 36.239
C 17.959 28.268 30.865
H 17.379 28.975 30.337
C 21.71  25.534 29.561
H 22.162 25.378 28.63 
N 20.208 25.576 34.568
C 21.07  24.708 35.05 
C 20.913 24.534 36.627
H 20.86  23.453 36.888
C 19.661 25.339 36.904
H 19.946 26.133 37.565
C 19.389 25.995 35.526
C 18.503 24.512 37.532
H 18.416 23.527 37.126
H 18.788 24.425 38.562
H 17.526 24.925 37.614
C 22.144 24.884 37.446
H 22.295 25.95  37.178
H 23.058 24.409 37.136
C 21.979 24.813 39.022
H 21.081 24.283 39.341
H 22.874 24.189 39.324
C 22.244 26.067 39.831
O 23.061 26.234 40.73 
O 21.273 26.939 39.51 
N 18.552 27.593 33.067
C 18.022 27.711 34.306
C 16.846 28.544 34.243
C 16.697 28.952 32.955
C 17.721 28.236 32.232
C 15.871 28.798 35.379
H 15.019 28.146 35.275
H 16.201 28.677 36.469
H 15.455 29.764 35.323
C 15.62  29.8   32.275
H 15.809 30.107 31.276
C 14.462 30.261 32.776
H 14.031 29.972 33.724
H 13.852 30.81  32.08 
N 19.812 26.746 30.47 
C 18.885 27.606 30.052
C 18.964 27.748 28.62 
C 19.979 26.904 28.206
C 20.602 26.352 29.446
C 18.013 28.621 27.718
H 18.064 29.623 28.014
H 18.092 28.602 26.595
H 16.963 28.503 27.967
C 20.38  26.459 26.777
H 21.051 25.6   26.881
H 19.473 26.067 26.169
C 20.908 27.45  25.755
H 21.292 26.916 24.867
H 20.131 27.972 25.308
H 21.599 28.148 26.178
N 21.605 25.131 31.941
C 22.167 24.816 30.706
C 23.167 23.801 30.811
C 23.21  23.507 32.238
C 22.188 24.339 32.803
C 23.915 23.238 29.627
H 23.295 23.086 28.781
H 24.496 24.127 29.32 
H 24.411 22.324 29.893
C 23.782 22.674 33.231
O 24.673 21.916 33.096
C 23.035 22.996 34.558
H 23.756 23.518 35.222
C 22.478 21.782 35.13 
O 21.489 21.14  34.711
O 23.228 21.497 36.237
C 22.76  20.334 37.027
H 23.303 20.213 37.905
H 21.685 20.522 37.172
H 22.621 19.388 36.518
C 21.225 28.091 40.499
H 22.219 28.525 40.381
H 21.097 27.758 41.485
C 20.204 29.052 40.162
H 19.742 29.501 41.06 
C 19.725 29.489 38.969
C 20.408 29.186 37.656
H 21.159 28.475 37.714
H 19.698 28.82  36.974
H 20.787 30.118 37.159
C 18.379 30.257 38.965
H 17.978 30.331 39.959
H 17.666 29.614 38.425
C 18.485 31.667 38.241
H 19.535 31.968 38.064
H 18.182 32.418 38.953
C 17.679 31.718 36.846
H 17.381 30.8   36.39 
H 18.478 32.226 36.305
C 16.329 32.555 36.799
H 16.676 33.434 37.302
C 15.246 31.961 37.682
H 14.373 32.562 37.665
H 14.89  30.967 37.422
H 15.549 31.974 38.728
C 15.792 32.923 35.307
H 14.952 33.651 35.446
H 15.546 32.014 34.772
C 16.741 33.751 34.487
H 17.312 33.008 33.841
H 17.458 34.15  35.143
C 16.033 34.74  33.556
H 15.988 35.669 34.087
H 15.06  34.402 33.329
C 16.695 35.03  32.127
H 16.782 34.033 31.69 
C 18.117 35.64  32.211
H 18.446 35.767 31.152
H 18.081 36.607 32.693
H 18.841 35.001 32.742
C 15.781 35.849 31.179
H 16.171 36.276 30.22 
H 15.469 36.762 31.71 
C 14.516 35.171 30.643
H 13.776 35.993 30.74 
H 14.137 34.349 31.287
C 14.576 34.832 29.243
H 15.58  34.886 28.942
H 13.95  35.61  28.715
C 14.165 33.392 28.85 
H 13.243 33.049 29.213
C 15.272 32.327 29.318
H 15.162 31.317 29.037
H 16.23  32.737 29.013
H 15.45  32.449 30.366
C 13.924 33.406 27.323
H 13.384 32.608 26.941
H 13.621 34.401 26.874
H 14.928 33.105 26.98 
