137

Mg 29.004 29.263 36.642
C 27.825 26.061 37.61 
C 28.924 28.265 33.384
H 29.162 27.812 32.407
C 29.932 32.386 35.816
H 30.115 33.378 35.577
C 29.474 29.904 39.987
H 29.578 30.183 41.123
N 28.515 27.398 35.693
C 28.    26.213 36.266
C 27.852 25.111 35.179
H 28.365 24.176 35.45 
C 28.555 25.758 34.038
H 27.899 25.66  33.182
C 28.675 27.246 34.379
C 29.899 25.119 33.643
H 30.434 25.027 34.599
H 29.742 24.146 33.229
H 30.456 25.748 32.945
C 26.274 24.908 34.993
H 25.916 25.734 34.423
H 25.9   24.949 36.02 
C 25.961 23.511 34.405
H 25.339 23.737 33.608
H 26.792 22.962 34.032
C 25.076 22.636 35.223
O 24.284 23.101 36.049
O 24.991 21.373 34.785
N 29.275 30.215 34.812
C 29.247 29.599 33.577
C 29.515 30.561 32.501
C 29.79  31.763 33.262
C 29.637 31.473 34.691
C 29.628 30.247 30.998
H 29.95  29.195 30.788
H 28.613 30.426 30.628
H 30.428 30.848 30.62 
C 30.208 33.095 32.774
H 30.741 33.745 33.477
C 29.916 33.598 31.525
H 29.3   33.047 30.808
H 30.28  34.591 31.219
N 29.509 30.932 37.722
C 29.935 32.066 37.179
C 30.345 32.966 38.262
C 30.271 32.207 39.429
C 29.741 30.981 39.076
C 30.653 34.459 38.037
H 31.501 34.461 37.32 
H 29.849 35.074 37.631
H 31.139 34.859 38.902
C 30.659 32.674 40.819
H 31.452 32.026 41.243
H 31.231 33.596 40.741
C 29.452 32.969 41.725
H 29.114 34.033 41.679
H 28.602 32.294 41.436
H 29.703 32.632 42.709
N 28.706 28.222 38.438
C 28.933 28.632 39.731
C 28.54  27.627 40.636
C 28.134 26.583 39.87 
C 28.226 26.971 38.529
C 28.61  27.835 42.165
H 29.613 27.414 42.481
H 28.491 28.902 42.479
H 27.861 27.216 42.638
C 27.715 25.166 39.886
O 27.444 24.394 40.796
C 27.342 24.896 38.389
H 26.31  24.79  38.202
C 27.906 23.535 38.054
O 29.077 23.286 37.765
O 26.898 22.656 37.995
C 27.266 21.346 37.486
H 27.481 21.31  36.447
H 28.015 20.801 38.106
H 26.324 20.836 37.554
C 23.897 20.488 35.233
H 23.059 21.222 35.053
H 23.951 20.199 36.304
C 23.909 19.425 34.176
H 24.699 18.764 34.211
C 22.984 19.284 33.186
C 21.741 20.149 32.836
H 20.841 19.524 32.842
H 21.411 21.031 33.517
H 21.715 20.56  31.802
C 23.482 18.485 32.072
H 24.495 18.086 32.297
H 23.635 19.257 31.306
C 22.592 17.277 31.617
H 21.62  17.424 32.095
H 22.874 16.31  32.092
C 22.37  16.912 30.151
H 23.113 17.316 29.454
H 21.351 17.264 29.885
C 22.412 15.348 29.824
H 23.395 14.922 30.005
C 22.184 15.137 28.288
H 22.198 14.061 28.023
H 21.279 15.62  27.903
H 23.015 15.686 27.814
C 21.403 14.406 30.566
H 21.659 14.419 31.626
H 21.519 13.41  30.26 
C 19.93  14.804 30.443
H 19.805 15.669 29.757
H 19.775 15.177 31.394
C 18.924 13.73  29.923
H 18.516 13.058 30.729
H 19.368 13.026 29.158
C 17.712 14.236 28.979
H 18.243 14.676 28.131
C 16.854 15.299 29.643
H 16.17  14.878 30.341
H 17.464 16.053 30.077
H 16.318 15.845 28.915
C 16.837 13.147 28.278
H 15.947 13.644 27.853
H 16.462 12.506 29.057
C 17.456 12.209 27.212
H 18.437 12.63  26.978
H 16.906 12.339 26.29 
C 17.689 10.689 27.671
H 17.546 10.71  28.714
H 18.786 10.539 27.67 
C 16.864  9.614 27.035
H 17.109  9.755 25.983
C 15.348  9.715 27.18 
H 15.019  9.736 28.212
H 15.166 10.623 26.667
H 14.946  8.946 26.614
C 17.434  8.259 27.456
H 18.437  8.179 26.995
H 17.611  8.421 28.49 
H 16.861  7.339 27.25 
