137

Mg 37.196 32.498 35.609
C 34.567 30.414 34.901
C 38.918 31.22  32.936
H 39.369 30.905 32.018
C 39.86  34.505 36.463
H 40.708 35.176 36.748
C 35.597 33.333 38.545
H 35.155 33.686 39.462
N 36.776 31.05  34.163
C 35.574 30.411 33.958
C 35.507 29.62  32.666
H 35.184 28.581 32.725
C 37.024 29.653 32.182
H 37.034 30.091 31.201
C 37.621 30.693 33.159
C 37.733 28.28  32.342
H 38.663 28.321 31.787
H 37.834 27.848 33.309
H 37.142 27.558 31.721
C 34.472 30.171 31.56 
H 34.577 31.27  31.654
H 33.374 30.028 31.796
C 34.582 29.747 30.062
H 35.051 30.606 29.583
H 35.213 28.887 29.932
C 33.354 29.438 29.247
O 33.145 28.331 28.861
O 32.47  30.496 28.987
N 39.038 32.799 34.816
C 39.559 32.28  33.64 
C 40.772 32.907 33.325
C 40.995 33.857 34.332
C 39.894 33.763 35.248
C 41.553 32.657 32.035
H 40.872 32.969 31.296
H 42.519 33.188 31.997
H 41.681 31.615 31.845
C 42.132 34.844 34.402
H 42.254 35.61  33.646
C 42.914 34.869 35.528
H 42.767 34.168 36.335
H 43.798 35.577 35.517
N 37.591 33.741 37.214
C 38.808 34.428 37.391
C 38.766 34.999 38.662
C 37.53  34.726 39.244
C 36.836 33.878 38.311
C 39.82  35.923 39.189
H 40.784 35.605 39.488
H 39.924 36.563 38.304
H 39.449 36.495 40.072
C 37.02  35.266 40.552
H 36.649 34.403 41.111
H 37.839 35.653 41.094
C 35.952 36.364 40.289
H 36.449 37.305 40.107
H 35.247 36.133 39.502
H 35.405 36.58  41.171
N 35.486 32.006 36.524
C 34.968 32.357 37.759
C 33.716 31.748 37.972
C 33.546 30.939 36.889
C 34.611 31.134 36.005
C 32.809 31.939 39.162
H 32.775 33.01  39.502
H 31.792 31.544 38.961
H 33.269 31.448 40.016
C 32.63  30.062 36.19 
O 31.532 29.684 36.511
C 33.301 29.597 34.877
H 32.774 29.75  33.923
C 33.548 28.072 35.089
O 34.128 27.581 36.056
O 33.189 27.41  33.918
C 33.806 26.102 33.733
H 33.236 25.378 34.367
H 33.699 25.777 32.659
H 34.93  26.14  33.941
C 31.447 30.126 27.984
H 30.873 29.213 28.367
H 31.992 29.864 27.075
C 30.649 31.402 27.717
H 31.131 32.158 27.138
C 29.413 31.759 28.03 
C 28.36  30.96  28.853
H 27.977 31.434 29.799
H 27.593 30.624 28.206
H 28.888 30.059 29.105
C 28.914 33.081 27.418
H 29.701 33.65  26.906
H 28.58  33.664 28.233
C 27.664 33.046 26.477
H 27.449 32.056 26.184
H 27.938 33.519 25.499
C 26.556 33.913 27.069
H 26.538 33.947 28.161
H 25.624 33.38  26.746
C 26.516 35.378 26.466
H 26.703 35.453 25.355
C 27.649 36.136 27.245
H 27.65  35.797 28.35 
H 28.617 35.941 26.814
H 27.473 37.177 27.149
C 25.141 36.147 26.807
H 25.159 37.178 26.426
H 25.036 36.293 27.909
C 23.864 35.49  26.265
H 24.098 34.597 25.705
H 23.355 36.029 25.456
C 22.849 34.936 27.274
H 21.883 35.446 27.011
H 23.246 35.324 28.219
C 22.596 33.426 27.509
H 23.478 32.909 27.457
C 21.826 32.876 26.244
H 22.221 31.92  26.124
H 20.787 32.798 26.439
H 22.106 33.358 25.34 
C 21.931 33.091 28.819
H 21.57  32.029 28.774
H 20.951 33.596 28.892
C 22.819 33.306 30.044
H 22.41 34.09 30.7 
H 23.822 33.598 29.838
C 22.861 32.165 31.097
H 22.189 31.418 30.739
H 22.66  32.519 32.071
C 24.233 31.329 31.283
H 25.018 31.976 31.681
C 24.735 30.664 30.01 
H 24.819 31.347 29.178
H 25.777 30.387 30.152
H 24.19  29.771 29.713
C 23.943 30.26  32.362
H 23.202 29.47  32.098
H 24.862 29.823 32.638
H 23.6   30.832 33.23 
