137

Mg 20.917 17.486 25.67 
C 23.702 17.239 23.515
C 22.768 19.473 27.669
H 23.386 20.108 28.298
C 18.303 17.606 27.851
H 17.423 17.561 28.49 
C 19.22  15.18  23.736
H 18.603 14.579 23.12 
N 22.978 18.332 25.517
C 23.867 18.208 24.499
C 25.062 19.096 24.637
H 25.972 18.545 24.499
C 24.908 19.566 26.079
H 24.897 20.647 26.137
C 23.443 19.138 26.464
C 25.969 19.12  27.084
H 25.838 18.036 27.182
H 26.896 19.349 26.611
H 25.847 19.598 28.068
C 25.104 20.159 23.555
H 24.104 20.63  23.596
H 25.113 19.723 22.566
C 26.279 21.117 23.698
H 26.915 20.709 24.468
H 26.937 21.102 22.807
C 25.973 22.593 23.966
O 26.749 23.36  24.511
O 24.678 22.956 23.655
N 20.629 18.402 27.556
C 21.503 19.211 28.159
C 20.886 19.724 29.356
C 19.597 19.076 29.471
C 19.503 18.301 28.275
C 21.536 20.846 30.19 
H 21.982 21.514 29.492
H 20.716 21.27  30.742
H 22.285 20.52  30.899
C 18.505 19.142 30.53 
H 17.521 18.571 30.337
C 18.543 19.808 31.691
H 19.328 20.461 32.106
H 17.607 19.782 32.3  
N 19.055 16.555 25.744
C 18.079 16.728 26.734
C 16.886 15.941 26.368
C 17.155 15.45  25.116
C 18.49  15.759 24.778
C 15.737 15.643 27.271
H 15.654 16.494 27.993
H 14.807 15.585 26.755
H 16.04  14.696 27.831
C 16.233 14.496 24.417
H 16.765 13.643 23.987
H 15.573 13.978 25.099
C 15.494 15.226 23.198
H 15.42  14.486 22.439
H 14.517 15.645 23.49 
H 16.106 15.997 22.757
N 21.351 16.323 24.048
C 20.564 15.399 23.396
C 21.307 14.796 22.354
C 22.551 15.499 22.348
C 22.563 16.411 23.363
C 20.762 13.793 21.358
H 19.983 14.268 20.743
H 21.535 13.269 20.8  
H 20.221 13.038 21.848
C 23.779 15.652 21.652
O 24.319 15.086 20.733
C 24.616 16.781 22.414
H 24.876 17.552 21.726
C 25.72  16.014 22.98 
O 25.625 15.076 23.723
O 26.883 16.59  22.711
C 28.079 15.818 22.947
H 27.96  14.774 22.631
H 28.968 16.273 22.458
H 28.242 15.919 24.029
C 24.501 24.449 23.682
H 24.588 24.994 22.775
H 25.153 24.985 24.379
C 23.025 24.602 24.08 
H 22.294 24.952 23.365
C 22.545 24.622 25.316
C 23.394 24.274 26.524
H 23.757 23.243 26.362
H 24.286 24.903 26.615
H 22.877 24.287 27.441
C 21.112 24.961 25.702
H 20.756 24.351 26.487
H 20.393 24.941 24.909
C 20.88  26.284 26.473
H 21.839 26.88  26.478
H 20.602 26.024 27.497
C 19.801 27.27  25.945
H 18.973 27.246 26.653
H 19.571 26.921 24.935
C 20.346 28.765 26.01 
H 21.343 28.787 25.468
C 20.404 29.216 27.462
H 20.715 30.237 27.537
H 19.478 28.997 27.956
H 21.137 28.626 28.027
C 19.498 29.701 25.059
H 19.65  30.759 25.445
H 18.492 29.5   25.317
C 19.53  29.479 23.524
H 18.617 28.972 23.193
H 20.389 28.848 23.345
C 19.843 30.793 22.816
H 20.678 30.558 22.168
H 20.158 31.655 23.448
C 18.608 31.175 21.885
H 18.12  30.323 21.387
C 18.976 32.219 20.852
H 18.061 32.746 20.424
H 19.72  32.863 21.45 
H 19.458 31.649 20.032
C 17.457 31.742 22.805
H 17.95  32.68  23.194
H 17.294 31.133 23.687
C 15.997 32.029 22.106
H 15.95  31.574 21.11 
H 15.989 33.171 21.936
C 14.823 31.589 22.989
H 15.205 31.294 24.007
H 14.337 30.692 22.479
C 13.839 32.754 23.369
H 14.428 33.634 23.687
C 12.951 32.146 24.511
H 13.472 32.089 25.439
H 12.06  32.765 24.602
H 12.559 31.134 24.193
C 13.035 33.095 22.105
H 13.71  33.408 21.266
H 12.435 32.223 21.754
H 12.505 34.028 22.366
