137

Mg 22.941 16.299 29.382
C 25.208 14.982 27.15 
C 24.062 19.413 28.394
H 24.367 20.401 28.043
C 20.836 17.699 31.572
H 20.246 18.201 32.311
C 22.553 13.217 30.78 
H 22.474 12.213 31.28 
N 24.368 17.079 28.008
C 25.077 16.342 27.086
C 25.884 17.147 26.121
H 26.974 16.938 26.175
C 25.659 18.591 26.658
H 25.23  19.159 25.929
C 24.645 18.377 27.796
C 26.999 19.211 27.123
H 27.473 19.622 26.231
H 26.851 20.068 27.71 
H 27.642 18.414 27.59 
C 25.521 16.965 24.641
H 24.542 17.436 24.518
H 25.445 15.962 24.498
C 26.535 17.402 23.571
H 27.464 17.847 23.992
H 26.838 16.671 22.824
C 26.135 18.644 22.813
O 26.112 18.796 21.644
O 25.808 19.728 23.63 
N 22.508 18.218 29.906
C 23.084 19.361 29.43 
C 22.516 20.502 30.011
C 21.555 20.047 30.961
C 21.643 18.589 30.86 
C 22.929 21.892 29.829
H 22.253 22.323 29.15 
H 22.942 22.499 30.72 
H 23.936 21.896 29.506
C 20.853 20.727 31.992
H 19.73  20.561 32.046
C 21.506 21.397 33.008
H 22.577 21.506 33.154
H 20.892 21.835 33.855
N 21.836 15.584 30.952
C 20.903 16.305 31.651
C 20.251 15.405 32.576
C 20.823 14.15  32.438
C 21.804 14.295 31.331
C 19.278 15.799 33.62 
H 19.079 14.95  34.224
H 19.664 16.538 34.289
H 18.337 16.204 33.244
C 20.48  12.879 33.196
H 21.445 12.435 33.311
H 20.127 13.061 34.196
C 19.506 12.006 32.42 
H 19.654 11.936 31.325
H 19.597 10.98  32.718
H 18.569 12.538 32.566
N 23.496 14.464 28.909
C 23.429 13.306 29.653
C 24.124 12.16  29.031
C 24.853 12.856 28.052
C 24.43  14.205 28.017
C 24.173 10.761 29.461
H 24.216 10.811 30.542
H 23.435 10.07  29.003
H 25.255 10.409 29.172
C 25.832 12.608 26.935
O 26.397 11.54  26.694
C 26.011 13.972 26.262
H 25.674 13.847 25.216
C 27.485 14.261 26.174
O 28.26  14.485 27.065
O 27.94  14.137 24.896
C 29.392 14.27  24.66 
H 29.636 14.543 23.572
H 29.915 14.978 25.31 
H 29.886 13.33  24.977
C 25.584 21.071 23.035
H 24.701 21.112 22.347
H 26.371 21.318 22.352
C 25.621 22.024 24.262
H 26.666 22.398 24.381
C 24.651 22.405 25.072
C 23.244 21.909 24.879
H 23.173 20.856 24.667
H 22.553 21.986 25.775
H 22.715 22.416 24.004
C 24.845 23.29  26.195
H 25.903 23.25  26.552
H 24.283 22.708 27.053
C 24.496 24.721 25.949
H 24.4   25.02  24.849
H 25.424 25.187 26.304
C 23.192 25.312 26.589
H 22.889 24.509 27.266
H 22.459 25.438 25.862
C 23.104 26.696 27.265
H 23.423 27.469 26.533
C 23.938 26.694 28.545
H 23.522 25.891 29.1  
H 24.967 26.562 28.393
H 23.681 27.624 29.101
C 21.506 27.001 27.752
H 21.48  27.951 28.254
H 21.308 26.38  28.603
C 20.454 26.864 26.657
H 20.143 25.855 26.357
H 20.935 27.303 25.81 
C 19.131 27.573 26.973
H 18.983 27.799 28.014
H 18.318 26.91  26.715
C 18.834 28.818 26.113
H 19.202 28.768 25.061
C 19.712 30.007 26.626
H 20.735 29.705 26.719
H 19.574 30.798 25.911
H 19.427 30.288 27.638
C 17.314 29.115 25.982
H 16.894 29.313 26.991
H 16.878 28.203 25.568
C 16.976 30.317 25.184
H 17.673 30.513 24.327
H 16.993 31.262 25.73 
C 15.513 30.205 24.581
H 15.147 29.165 24.689
H 15.612 30.407 23.547
C 14.53  31.173 25.293
H 14.665 31.218 26.382
C 13.051 30.84  25.043
H 12.465 31.657 25.492
H 12.786 30.993 23.978
H 12.755 29.851 25.337
C 14.666 32.609 24.771
H 14.365 32.667 23.725
H 14.218 33.447 25.322
H 15.75  32.777 24.782
