137

Mg 31.341 28.226 41.947
C 27.913 28.379 42.511
C 30.768 28.056 38.684
H 30.623 28.141 37.597
C 34.598 27.863 41.421
H 35.709 27.691 41.223
C 31.863 27.959 45.35 
H 32.069 27.759 46.378
N 29.645 28.309 40.735
C 28.288 28.419 41.154
C 27.344 28.244 39.995
H 26.71  27.425 40.179
C 28.248 27.989 38.738
H 28.183 28.869 38.146
C 29.645 28.163 39.433
C 28.001 26.665 37.993
H 28.628 26.552 37.09 
H 28.237 25.857 38.652
H 26.974 26.557 37.738
C 26.416 29.408 39.763
H 27.047 30.277 39.315
H 26.052 29.682 40.769
C 25.143 29.025 38.981
H 25.29  27.976 38.522
H 24.31  28.963 39.632
C 24.706 29.942 37.784
O 23.855 30.803 37.91 
O 25.298 29.515 36.661
N 32.532 28.042 40.286
C 32.146 27.961 39.017
C 33.256 27.904 38.103
C 34.377 27.978 38.978
C 33.87  27.949 40.311
C 33.208 27.898 36.602
H 34.198 27.467 36.314
H 32.488 27.186 36.216
H 32.899 28.826 36.138
C 35.82  27.875 38.602
H 36.529 27.324 39.213
C 36.36  28.483 37.486
H 35.762 29.    36.739
H 37.413 28.399 37.211
N 32.915 27.892 43.163
C 34.243 27.864 42.746
C 35.141 27.639 43.867
C 34.275 27.496 44.97 
C 32.949 27.844 44.546
C 36.66  27.496 43.894
H 37.015 27.787 44.948
H 37.041 26.6   43.602
H 36.916 28.287 43.248
C 34.574 27.137 46.428
H 33.764 26.542 46.919
H 35.516 26.626 46.501
C 34.753 28.457 47.102
H 35.712 28.808 46.821
H 33.938 29.173 47.056
H 34.794 28.131 48.153
N 30.179 28.018 43.627
C 30.495 27.893 44.94 
C 29.321 27.737 45.71 
C 28.24  28.007 44.81 
C 28.805 28.16  43.575
C 29.266 27.644 47.282
H 29.838 28.478 47.624
H 28.248 27.697 47.722
H 29.739 26.77  47.679
C 26.811 28.155 44.769
O 25.973 28.138 45.642
C 26.513 28.393 43.243
H 26.163 29.37  43.009
C 25.487 27.328 42.869
O 25.72  26.128 42.792
O 24.214 27.943 42.535
C 23.296 26.839 42.101
H 23.819 26.14  41.319
H 23.118 26.162 42.948
H 22.402 27.259 41.712
C 24.811 30.144 35.428
H 25.699 30.162 34.758
H 24.467 31.157 35.52 
C 23.832 29.106 34.956
H 24.185 28.044 35.058
C 22.535 29.233 34.465
C 21.853 30.574 34.167
H 21.656 30.448 33.131
H 20.918 30.878 34.648
H 22.495 31.412 34.377
C 21.731 27.986 34.001
H 22.44  27.238 33.846
H 21.31  28.129 32.979
C 20.522 27.519 34.922
H 20.23  28.372 35.511
H 20.868 26.741 35.613
C 19.42  26.739 34.111
H 19.152 25.902 34.836
H 19.764 26.332 33.155
C 18.104 27.623 33.937
H 17.818 27.99  34.959
C 16.95  26.667 33.56 
H 16.1   27.222 33.249
H 17.248 26.067 32.732
H 16.813 26.062 34.422
C 18.429 28.71  32.819
H 19.288 29.289 33.157
H 17.548 29.372 32.763
C 18.584 28.108 31.367
H 18.642 27.027 31.425
H 19.552 28.516 31.006
C 17.482 28.518 30.324
H 17.924 29.22  29.597
H 16.824 29.113 30.883
C 16.598 27.349 29.711
H 16.34  26.644 30.508
C 17.335 26.534 28.67 
H 17.488 27.035 27.719
H 18.307 26.132 29.029
H 16.815 25.638 28.398
C 15.297 27.905 29.116
H 15.501 28.774 28.473
H 14.648 28.27  29.977
C 14.394 26.906 28.31 
H 14.561 25.881 28.669
H 14.6   27.033 27.266
C 12.872 27.133 28.584
H 12.67  28.051 29.107
H 12.584 26.34  29.283
C 11.905 27.234 27.39 
H 12.332 28.033 26.705
C 10.417 27.49  27.8  
H 10.323 28.4   28.373
H  9.791 27.732 26.904
H 10.033 26.666 28.338
C 11.957 26.002 26.506
H 11.264 26.189 25.689
H 12.952 25.881 26.093
H 11.575 25.12  27.029
