137

Mg 26.555 28.255 43.321
C 25.091 25.219 42.332
C 27.769 28.616 40.172
H 28.219 28.763 39.216
C 27.192 31.475 44.014
H 27.367 32.548 44.202
C 25.236 27.768 46.53 
H 24.843 27.64  47.52 
N 26.481 27.019 41.497
C 25.728 25.884 41.215
C 25.886 25.376 39.781
H 26.341 24.338 39.792
C 26.983 26.313 39.215
H 26.615 26.886 38.397
C 27.159 27.392 40.382
C 28.295 25.602 38.775
H 29.035 26.284 38.457
H 28.706 25.125 39.663
H 28.16  24.812 38.012
C 24.511 25.339 39.127
H 24.021 26.23  39.445
H 23.861 24.59  39.595
C 24.455 25.248 37.492
H 25.48  25.337 37.16 
H 24.036 24.35  37.124
C 23.629 26.418 36.835
O 24.094 27.119 36.001
O 22.302 26.445 37.246
N 27.414 29.766 42.343
C 27.87  29.715 41.062
C 28.403 30.96  40.564
C 28.237 31.861 41.666
C 27.583 31.081 42.723
C 29.051 31.257 39.189
H 28.429 31.941 38.633
H 30.059 31.731 39.29 
H 29.271 30.345 38.645
C 28.585 33.304 41.685
H 29.379 33.624 41.03 
C 27.807 34.229 42.263
H 26.965 33.971 42.806
H 27.97  35.346 42.041
N 26.326 29.406 44.988
C 26.643 30.738 45.062
C 26.532 31.248 46.439
C 25.874 30.209 47.141
C 25.762 29.054 46.251
C 26.808 32.718 46.883
H 27.889 32.794 47.04 
H 26.245 33.421 46.213
H 26.376 32.862 47.839
C 25.423 30.204 48.601
H 25.705 29.261 49.074
H 26.051 30.857 49.239
C 23.949 30.597 48.875
H 23.8   31.531 48.375
H 23.251 29.855 48.52 
H 23.739 30.735 49.973
N 25.475 26.751 44.3  
C 24.99  26.718 45.648
C 24.305 25.398 45.822
C 24.331 24.857 44.559
C 25.    25.695 43.675
C 23.607 24.846 47.038
H 23.064 23.943 46.688
H 24.348 24.523 47.728
H 23.002 25.646 47.457
C 23.704 23.864 43.73 
O 22.836 23.053 43.983
C 24.263 23.993 42.277
H 23.435 23.939 41.645
C 25.162 22.831 42.337
O 26.048 22.679 43.167
O 24.843 21.942 41.342
C 25.633 20.715 41.407
H 25.439 19.962 40.613
H 26.699 20.993 41.243
H 25.517 20.284 42.402
C 21.412 27.394 36.52 
H 21.263 27.066 35.498
H 21.798 28.413 36.617
C 20.029 27.478 37.103
H 19.927 28.155 37.962
C 18.872 26.848 36.761
C 18.72  25.731 35.694
H 18.353 24.802 36.168
H 17.974 26.013 34.937
H 19.732 25.446 35.298
C 17.59  27.134 37.56 
H 17.802 27.747 38.419
H 17.202 26.18  37.942
C 16.556 27.928 36.75 
H 16.362 27.281 35.891
H 16.874 28.934 36.5  
C 15.352 28.235 37.621
H 15.57  29.05  38.283
H 15.187 27.318 38.278
C 14.149 28.863 36.766
H 14.513 29.729 36.193
C 13.169 29.489 37.787
H 12.217 29.768 37.327
H 12.922 28.716 38.444
H 13.548 30.295 38.285
C 13.343 27.987 35.8  
H 14.035 27.65  34.956
H 12.605 28.578 35.204
C 12.702 26.744 36.402
H 11.638 26.819 36.175
H 12.729 26.637 37.484
C 13.229 25.437 35.788
H 13.72  24.773 36.419
H 13.827 25.684 34.914
C 12.079 24.458 35.338
H 11.459 24.292 36.186
C 12.655 23.088 34.786
H 13.143 23.324 33.76 
H 13.288 22.578 35.553
H 11.819 22.464 34.681
C 11.271 25.107 34.168
H 11.767 24.992 33.236
H 11.124 26.235 34.196
C  9.828 24.642 34.1  
H  9.269 25.537 33.828
H  9.61  24.152 35.035
C  9.442 23.7   32.909
H 10.274 23.445 32.284
H  8.646 24.243 32.356
C  8.625 22.347 33.132
H  7.752 22.694 33.714
C  9.427 21.336 33.958
H  9.74  21.869 34.852
H  8.903 20.482 34.303
H 10.266 21.108 33.271
C  8.053 21.743 31.929
H  7.316 20.962 32.101
H  7.508 22.588 31.443
H  8.856 21.343 31.3  
