137

Mg 35.545 34.018 36.205
C 32.086 34.7   35.99 
C 35.212 31.861 33.53 
H 35.125 31.219 32.648
C 38.971 33.466 36.244
H 40.04  33.353 36.239
C 35.785 36.379 38.606
H 35.89  37.198 39.352
N 33.845 33.451 34.879
C 32.506 33.818 34.973
C 31.709 33.24  33.77 
H 31.001 32.55  34.136
C 32.703 32.34  32.953
H 32.988 32.658 31.989
C 34.017 32.502 33.892
C 32.237 30.883 32.797
H 31.429 30.872 32.02 
H 33.133 30.27  32.618
H 31.824 30.446 33.688
C 31.211 34.409 32.934
H 32.147 34.897 32.593
H 30.596 35.178 33.494
C 30.486 33.914 31.63 
H 31.077 33.908 30.703
H 30.132 32.918 31.904
C 29.26  34.795 31.366
O 28.975 35.514 30.392
O 28.453 34.605 32.498
N 36.906 32.826 35.028
C 36.547 32.057 34.001
C 37.757 31.402 33.436
C 38.821 31.883 34.244
C 38.25  32.807 35.202
C 37.79  30.617 32.181
H 36.987 30.795 31.499
H 38.745 30.774 31.631
H 37.818 29.538 32.321
C 40.282 31.661 34.153
H 40.939 32.479 34.432
C 40.845 30.582 33.529
H 40.284 29.677 33.178
H 41.938 30.544 33.423
N 37.141 34.789 37.288
C 38.45  34.428 37.174
C 39.257 35.141 38.216
C 38.301 35.914 38.943
C 36.997 35.747 38.283
C 40.765 34.963 38.329
H 41.194 35.343 39.271
H 41.103 33.899 38.327
H 41.379 35.476 37.596
C 38.654 36.861 40.05 
H 38.02  36.72  40.895
H 39.547 36.521 40.487
C 38.977 38.33  39.598
H 38.05  38.753 39.062
H 39.303 39.07  40.396
H 39.729 38.358 38.788
N 34.281 35.214 37.275
C 34.464 36.238 38.183
C 33.202 36.815 38.622
C 32.286 36.183 37.794
C 32.938 35.238 36.993
C 32.951 37.881 39.638
H 33.311 37.602 40.593
H 33.428 38.772 39.222
H 31.923 38.02  39.616
C 30.847 36.115 37.488
O 29.873 36.654 38.049
C 30.642 35.217 36.4  
H 30.113 35.68  35.535
C 29.819 34.054 36.822
O 29.845 33.516 37.912
O 28.837 33.775 35.829
C 28.161 32.497 36.054
H 27.337 32.46  36.822
H 27.745 32.229 35.097
H 28.964 31.795 36.326
C 27.207 35.383 32.304
H 26.687 35.2   31.376
H 27.503 36.431 32.273
C 26.438 35.157 33.62 
H 27.037 35.222 34.532
C 25.173 34.661 33.804
C 24.305 34.121 32.658
H 23.831 33.233 32.884
H 23.499 34.76  32.479
H 24.893 34.035 31.741
C 24.645 34.492 35.246
H 25.181 34.999 36.064
H 24.743 33.464 35.434
C 23.208 35.053 35.477
H 23.025 35.77  34.65 
H 23.116 35.518 36.443
C 22.235 33.962 35.663
H 22.112 33.758 36.74 
H 22.631 33.013 35.159
C 20.903 34.038 34.85 
H 21.105 33.99  33.791
C 20.114 35.362 35.035
H 19.247 35.32  34.396
H 19.803 35.477 36.03 
H 20.682 36.247 34.761
C 19.945 32.777 35.058
H 20.639 31.991 34.847
H 19.191 32.817 34.297
C 19.171 32.639 36.4  
H 18.156 32.953 36.179
H 19.546 33.442 37.086
C 18.99  31.158 36.842
H 19.433 30.506 36.134
H 17.913 31.005 36.861
C 19.558 30.757 38.228
H 19.266 31.653 38.805
C 21.069 30.702 38.093
H 21.508 31.483 37.506
H 21.666 30.72  39.01 
H 21.327 29.839 37.459
C 18.965 29.52  38.949
H 19.653 29.326 39.809
H 19.055 28.722 38.218
C 17.471 29.726 39.328
H 17.041 30.651 38.961
H 17.494 29.576 40.444
C 16.573 28.675 38.705
H 17.079 27.926 38.089
H 16.008 29.205 37.944
C 15.564 28.089 39.702
H 15.071 28.99  40.174
C 16.164 27.091 40.648
H 15.318 26.684 41.227
H 16.689 26.237 40.158
H 16.75  27.674 41.345
C 14.444 27.358 38.973
H 13.663 27.096 39.68 
H 14.081 28.011 38.195
H 14.746 26.381 38.464
