137

Mg 28.138 29.86  43.11 
C 24.541 30.037 43.46 
C 27.62 28.42 39.96
H 27.409 27.836 39.071
C 31.401 29.637 42.712
H 32.485 29.626 42.686
C 28.43  31.18  46.271
H 28.565 31.548 47.283
N 26.308 29.522 41.793
C 24.945 29.702 42.155
C 24.029 29.243 40.997
H 23.509 28.376 41.417
C 25.058 28.66  39.993
H 24.924 29.191 39.055
C 26.422 28.867 40.593
C 24.791 27.209 39.79 
H 25.34  27.042 38.844
H 25.171 26.477 40.466
H 23.761 26.992 39.593
C 23.071 30.358 40.46 
H 23.733 31.046 39.894
H 22.682 30.993 41.215
C 21.917 29.965 39.549
H 21.803 28.963 39.485
H 21.002 30.316 40.   
C 21.833 30.451 38.134
O 21.297 31.51  37.821
O 22.255 29.434 37.24 
N 29.295 29.167 41.482
C 28.924 28.534 40.325
C 30.128 28.176 39.554
C 31.231 28.707 40.25 
C 30.696 29.163 41.491
C 30.023 27.435 38.198
H 29.928 28.13  37.343
H 30.972 26.906 38.027
H 29.311 26.616 38.242
C 32.657 28.746 39.936
H 33.325 28.983 40.738
C 33.238 28.426 38.761
H 32.737 28.248 37.783
H 34.362 28.494 38.722
N 29.659 30.174 44.353
C 30.953 29.987 43.957
C 31.784 30.245 45.201
C 30.948 30.884 46.139
C 29.607 30.801 45.584
C 33.186 29.877 45.301
H 33.697 30.453 46.074
H 33.151 28.792 45.447
H 33.76  30.095 44.435
C 31.386 31.448 47.443
H 30.704 31.072 48.241
H 32.397 31.147 47.687
C 31.393 32.97  47.319
H 31.965 33.265 46.423
H 30.356 33.334 47.34 
H 31.875 33.356 48.257
N 26.842 30.417 44.605
C 27.092 30.917 45.858
C 25.856 31.237 46.582
C 24.865 30.845 45.719
C 25.47  30.393 44.523
C 25.641 31.695 47.976
H 25.102 30.918 48.528
H 26.613 31.877 48.365
H 25.134 32.621 47.984
C 23.455 30.729 45.529
O 22.519 30.969 46.3  
C 23.162 30.203 44.094
H 22.496 30.905 43.543
C 22.432 29.015 44.432
O 22.929 27.994 44.908
O 21.267 29.054 43.745
C 20.615 27.773 43.583
H 21.23  26.993 43.103
H 20.119 27.33  44.439
H 19.736 27.864 42.919
C 22.168 29.791 35.848
H 22.922 30.585 35.687
H 21.165 30.083 35.591
C 22.586 28.556 35.148
H 23.196 27.907 35.795
C 22.147 28.064 34.003
C 21.219 28.847 33.002
H 21.061 29.889 33.246
H 21.726 28.85  32.004
H 20.282 28.284 32.97 
C 22.626 26.673 33.537
H 23.532 26.305 34.043
H 22.887 26.749 32.483
C 21.515 25.627 33.81 
H 20.582 26.179 33.794
H 21.561 25.125 34.76 
C 21.431 24.652 32.61 
H 22.405 24.733 32.15 
H 20.796 25.09  31.857
C 20.853 23.342 32.966
H 21.594 22.879 33.643
C 20.745 22.333 31.743
H 21.723 22.071 31.471
H 20.222 21.484 32.12 
H 20.328 22.847 30.851
C 19.549 23.448 33.778
H 19.643 23.938 34.762
H 19.226 22.485 34.056
C 18.336 24.069 32.978
H 18.431 23.837 31.905
H 18.478 25.066 33.118
C 16.878 23.607 33.395
H 16.763 23.248 34.422
H 16.68  22.851 32.663
C 15.725 24.699 33.178
H 15.868 25.214 32.297
C 15.94  25.907 34.152
H 16.764 26.504 33.77 
H 15.111 26.649 34.175
H 16.102 25.625 35.283
C 14.365 23.909 33.122
H 14.023 23.559 34.141
H 14.328 23.018 32.463
C 13.281 24.851 32.581
H 12.706 24.258 31.859
H 13.804 25.607 32.102
C 12.436 25.353 33.789
H 12.909 26.36  33.875
H 12.595 24.808 34.725
C 10.959 25.597 33.448
H 10.851 26.204 32.511
C 10.411 26.564 34.567
H 10.796 27.587 34.353
H  9.365 26.556 34.432
H 10.634 26.361 35.604
C 10.098 24.362 33.231
H  9.514 24.548 32.37 
H 10.712 23.447 33.228
H  9.424 24.136 34.111
