137

Mg 23.612 17.341 28.701
C 25.858 15.617 26.715
C 25.229 20.258 27.909
H 25.778 21.161 27.846
C 21.553 18.942 30.752
H 20.762 19.436 31.303
C 22.39  14.244 29.868
H 22.008 13.274 30.081
N 25.383 17.835 27.551
C 26.077 16.978 26.767
C 27.134 17.713 25.953
H 28.09  17.242 26.129
C 27.176 19.126 26.681
H 27.121 19.863 25.916
C 25.819 19.082 27.361
C 28.227 19.217 27.803
H 29.188 18.84  27.553
H 28.399 20.266 28.036
H 27.989 18.559 28.659
C 26.821 17.664 24.355
H 25.901 18.079 24.25 
H 26.694 16.652 23.956
C 27.829 18.402 23.435
H 28.566 18.879 24.092
H 28.367 17.617 22.85 
C 27.239 19.402 22.481
O 27.321 19.317 21.279
O 26.473 20.346 23.134
N 23.451 19.339 29.267
C 24.135 20.386 28.748
C 23.652 21.592 29.338
C 22.684 21.254 30.284
C 22.566 19.779 30.193
C 24.22  22.983 28.944
H 23.959 23.186 27.906
H 23.76  23.752 29.552
H 25.241 22.952 29.049
C 21.85  22.14  31.189
H 20.942 21.565 31.616
C 21.904 23.454 31.598
H 22.66  24.148 31.295
H 21.188 23.816 32.415
N 22.192 16.725 30.045
C 21.437 17.571 30.778
C 20.6   16.763 31.665
C 20.887 15.428 31.398
C 21.852 15.392 30.412
C 19.612 17.383 32.665
H 19.584 18.472 32.643
H 18.623 16.918 32.63 
H 20.103 17.343 33.682
C 20.3   14.227 32.062
H 21.106 13.743 32.474
H 19.552 14.526 32.843
C 19.391 13.368 31.149
H 19.878 13.119 30.232
H 19.035 12.516 31.665
H 18.509 13.899 30.888
N 23.984 15.318 28.379
C 23.418 14.182 28.855
C 23.959 12.985 28.213
C 24.996 13.545 27.433
C 24.885 14.918 27.466
C 23.606 11.542 28.548
H 23.804 11.248 29.578
H 22.605 11.186 28.221
H 24.249 10.925 27.952
C 26.165 13.21  26.622
O 26.633 12.123 26.321
C 26.704 14.57  26.055
H 26.541 14.501 25.015
C 28.166 14.605 26.392
O 28.737 14.565 27.503
O 28.795 14.887 25.194
C 30.284 14.98  25.351
H 30.459 15.842 26.031
H 30.804 14.02  25.492
H 30.685 15.235 24.35 
C 25.772 21.172 22.223
H 25.386 20.621 21.386
H 26.478 21.86  21.771
C 24.811 21.896 23.153
H 25.311 22.413 23.943
C 23.447 21.881 23.155
C 22.588 21.002 22.277
H 21.837 20.641 23.001
H 22.032 21.547 21.505
H 23.205 20.202 21.841
C 22.721 22.445 24.471
H 23.43  22.751 25.231
H 22.258 21.6   25.008
C 21.68  23.611 24.331
H 20.723 23.161 24.451
H 21.72  23.817 23.267
C 21.988 24.81  25.346
H 22.488 24.457 26.226
H 20.989 25.206 25.652
C 23.034 25.82  24.737
H 22.991 25.965 23.71 
C 24.445 25.409 25.285
H 24.698 25.569 26.351
H 24.736 24.395 25.042
H 25.165 26.042 24.725
C 22.804 27.25  25.287
H 23.558 27.885 24.794
H 22.925 27.308 26.342
C 21.508 27.861 24.756
H 21.179 27.339 23.905
H 21.57  28.847 24.339
C 20.335 27.761 25.783
H 20.598 27.284 26.709
H 19.502 27.187 25.399
C 19.779 29.179 26.243
H 19.309 29.741 25.406
C 20.941 29.983 26.979
H 21.783 30.173 26.341
H 20.51  30.98  27.177
H 21.222 29.337 27.797
C 18.615 28.961 27.247
H 18.959 28.646 28.221
H 17.894 28.175 26.851
C 17.691 30.203 27.363
H 17.918 30.925 26.603
H 17.892 30.629 28.336
C 16.164 29.834 27.384
H 15.874 30.038 28.422
H 16.082 28.728 27.205
C 15.25  30.61  26.363
H 15.439 31.633 26.594
C 13.822 30.09  26.541
H 13.298 30.654 25.775
H 13.782 29.04  26.252
H 13.518 30.376 27.591
C 15.647 30.423 24.89 
H 15.85  29.354 24.745
H 14.882 30.731 24.245
H 16.513 31.015 24.59 
