137

Mg 35.039 35.78  34.911
C 32.161 34.85  33.202
C 36.478 32.852 33.746
H 36.958 31.952 33.342
C 37.662 36.396 36.907
H 38.532 36.681 37.428
C 33.407 38.486 36.278
H 32.894 39.436 36.589
N 34.401 34.01  33.652
C 33.129 33.885 32.973
C 33.08 32.64 32.1 
H 32.368 32.046 32.606
C 34.435 31.947 32.543
H 35.063 31.842 31.575
C 35.158 32.989 33.344
C 34.281 30.46  33.243
H 33.624 30.481 34.179
H 33.736 29.872 32.446
H 35.304 30.164 33.37 
C 32.951 32.754 30.588
H 33.7   33.502 30.197
H 31.948 33.186 30.368
C 33.178 31.483 29.773
H 34.096 31.519 29.096
H 33.294 30.668 30.434
C 32.117 30.988 28.854
O 32.261 31.141 27.617
O 30.99  30.41  29.475
N 36.825 34.895 35.194
C 37.257 33.744 34.661
C 38.583 33.441 35.099
C 38.884 34.338 36.081
C 37.775 35.283 36.141
C 39.353 32.17  34.653
H 39.68  32.257 33.56 
H 40.161 31.99  35.331
H 38.679 31.328 34.655
C 40.165 34.334 36.794
H 40.277 34.653 37.795
C 41.263 34.054 36.075
H 41.21  33.877 34.937
H 42.292 33.982 36.491
N 35.487 37.288 36.313
C 36.638 37.304 37.041
C 36.671 38.473 37.868
C 35.515 39.119 37.601
C 34.76  38.347 36.647
C 37.881 38.925 38.764
H 38.874 39.009 38.295
H 37.658 39.906 39.173
H 37.986 38.287 39.654
C 34.941 40.391 38.197
H 34.006 40.166 38.624
H 35.54  40.692 39.029
C 34.878 41.522 37.21 
H 35.925 41.737 36.968
H 34.308 41.259 36.267
H 34.429 42.379 37.746
N 33.27  36.518 34.833
C 32.693 37.657 35.406
C 31.327 37.802 34.939
C 31.093 36.763 34.112
C 32.288 35.968 34.022
C 30.337 38.932 35.369
H 30.495 39.882 34.899
H 29.385 38.621 34.984
H 30.387 39.251 36.439
C 30.102 36.27  33.215
O 29.017 36.674 32.957
C 30.781 34.881 32.736
H 30.696 34.884 31.684
C 29.887 33.86  33.351
O 30.07  33.356 34.461
O 28.883 33.366 32.481
C 28.158 32.173 32.977
H 27.484 32.576 33.735
H 27.511 31.723 32.242
H 28.813 31.438 33.426
C 29.93  29.924 28.548
H 29.977 28.878 28.645
H 30.09  30.224 27.526
C 28.516 30.303 28.957
H 28.253 31.296 28.608
C 27.544 29.681 29.609
C 27.776 28.283 30.103
H 27.627 27.581 29.32 
H 28.7   28.111 30.571
H 27.047 28.057 30.858
C 26.073 30.22  29.785
H 25.837 31.148 29.264
H 25.883 30.289 30.881
C 25.01  29.265 29.146
H 25.52  28.547 28.554
H 24.485 29.906 28.476
C 24.005 28.681 30.078
H 23.216 29.42  30.107
H 24.393 28.578 31.129
C 23.542 27.301 29.814
H 24.39  26.655 29.941
C 22.948 27.035 28.409
H 22.681 25.953 28.389
H 22.147 27.749 28.055
H 23.768 27.113 27.701
C 22.486 26.82  30.946
H 23.031 26.968 31.968
H 22.368 25.642 30.718
C 21.14  27.573 31.058
H 20.48  26.746 31.184
H 20.901 27.971 30.066
C 21.095 28.77  32.011
H 20.913 29.749 31.5  
H 22.118 28.838 32.387
C 20.068 28.741 33.152
H 20.131 27.755 33.735
C 18.7   29.024 32.593
H 17.92  28.935 33.244
H 18.737 30.026 32.15 
H 18.432 28.353 31.86 
C 20.512 29.77  34.178
H 19.714 29.955 34.871
H 20.596 30.699 33.618
C 21.763 29.501 35.016
H 22.212 30.418 35.365
H 22.544 28.991 34.491
C 21.527 28.731 36.355
H 20.487 28.608 36.527
H 21.956 29.275 37.18 
C 22.247 27.394 36.426
H 23.317 27.599 36.185
C 21.839 26.385 35.319
H 22.571 25.555 35.387
H 20.889 25.952 35.456
H 22.02  26.72  34.317
C 22.066 26.72  37.725
H 20.957 26.771 37.882
H 22.37  25.647 37.646
H 22.589 27.199 38.554
