137

Mg 30.213 27.769 33.74 
C 27.868 27.055 31.296
C 32.71  27.219 31.523
H 33.515 27.048 30.816
C 32.48  28.616 36.087
H 33.099 28.758 36.967
C 27.639 28.432 35.983
H 26.811 28.538 36.659
N 30.259 27.164 31.695
C 29.184 26.999 30.844
C 29.604 26.971 29.349
H 29.134 26.126 28.856
C 31.195 26.719 29.551
H 31.865 27.331 28.953
C 31.398 27.086 31.012
C 31.663 25.315 29.237
H 31.173 24.618 29.902
H 31.623 25.043 28.178
H 32.713 25.286 29.447
C 29.363 28.326 28.754
H 30.051 29.044 29.243
H 28.365 28.664 28.992
C 29.629 28.365 27.161
H 30.266 29.2   27.062
H 30.198 27.538 26.8  
C 28.53  28.471 26.205
O 28.701 28.486 25.008
O 27.328 28.52  26.855
N 32.219 28.028 33.778
C 33.095 27.634 32.798
C 34.473 27.884 33.173
C 34.409 28.265 34.528
C 33.003 28.409 34.807
C 35.618 27.695 32.236
H 35.335 28.158 31.267
H 36.534 28.226 32.537
H 35.738 26.61  32.066
C 35.48  28.592 35.494
H 35.223 29.221 36.405
C 36.758 28.151 35.432
H 37.184 27.739 34.531
H 37.42  28.373 36.206
N 30.046 28.555 35.701
C 31.157 28.686 36.485
C 30.659 29.218 37.756
C 29.246 29.056 37.772
C 28.933 28.656 36.488
C 31.515 29.865 38.801
H 32.196 29.067 39.014
H 32.038 30.756 38.526
H 30.899 29.97  39.746
C 28.265 29.505 38.839
H 27.338 29.074 38.642
H 28.55  29.13  39.821
C 27.975 31.019 38.937
H 27.213 31.228 38.18 
H 27.683 31.217 39.96 
H 28.885 31.496 38.715
N 28.192 27.75  33.708
C 27.244 28.045 34.681
C 25.89  27.884 34.168
C 26.143 27.423 32.888
C 27.504 27.362 32.593
C 24.555 28.078 34.821
H 23.739 28.212 34.114
H 24.345 27.264 35.504
H 24.651 28.84  35.582
C 25.441 27.028 31.694
O 24.272 26.947 31.367
C 26.529 26.841 30.609
H 26.452 27.543 29.769
C 26.321 25.458 30.235
O 26.813 24.532 30.797
O 25.588 25.382 29.012
C 25.601 24.066 28.273
H 26.471 23.361 28.417
H 24.684 23.593 28.588
H 25.546 24.298 27.186
C 26.13  28.694 26.079
H 26.066 28.059 25.161
H 26.108 29.754 25.788
C 25.017 28.362 27.046
H 24.937 29.035 27.832
C 24.119 27.453 27.143
C 23.878 26.297 26.114
H 23.388 25.475 26.621
H 23.317 26.722 25.296
H 24.776 25.901 25.614
C 23.159 27.483 28.381
H 23.43  28.242 29.087
H 23.449 26.659 29.017
C 21.687 27.478 28.091
H 21.418 27.109 27.127
H 21.306 28.455 27.979
C 20.798 26.733 29.185
H 20.046 27.493 29.489
H 21.397 26.57  30.05 
C 20.09  25.424 28.785
H 19.747 25.648 27.753
C 18.758 24.93  29.377
H 18.914 24.566 30.403
H 18.112 25.858 29.394
H 18.319 24.086 28.763
C 21.126 24.225 28.748
H 22.017 24.639 28.247
H 20.726 23.468 28.173
C 21.621 23.51  30.033
H 21.026 23.813 30.969
H 22.75  23.831 30.073
C 21.729 21.949 29.955
H 22.778 21.748 29.877
H 21.27  21.556 29.047
C 21.114 21.112 31.095
H 21.635 21.306 32.013
C 21.433 19.648 30.837
H 20.846 19.105 31.594
H 21.258 19.252 29.819
H 22.485 19.521 31.115
C 19.58  21.393 31.363
H 18.869 21.09  30.581
H 19.35  22.433 31.36 
C 19.093 20.843 32.708
H 18.707 21.664 33.297
H 19.897 20.382 33.333
C 18.047 19.693 32.727
H 18.415 18.752 33.078
H 17.763 19.551 31.679
C 16.752 19.944 33.631
H 16.95  20.468 34.586
C 16.042 18.61  33.966
H 15.537 18.274 33.098
H 16.888 17.943 34.196
H 15.349 18.797 34.823
C 15.803 20.825 32.965
H 16.213 21.856 32.859
H 15.562 20.447 31.988
H 14.903 20.968 33.534
