137

Mg 19.475 26.421 32.769
C 21.584 25.147 35.212
C 17.209 27.082 35.201
H 16.563 27.234 36.009
C 17.477 27.768 30.404
H 16.831 28.214 29.645
C 21.69  25.273 30.348
H 22.307 24.804 29.574
N 19.403 26.107 34.912
C 20.402 25.613 35.739
C 20.011 25.669 37.214
H 20.061 24.684 37.609
C 18.528 26.041 37.157
H 18.147 26.92  37.754
C 18.349 26.391 35.662
C 17.727 24.827 37.506
H 17.974 23.983 36.784
H 17.748 24.522 38.539
H 16.687 25.061 37.285
C 20.906 26.677 38.025
H 20.78  27.668 37.645
H 21.95  26.373 37.966
C 20.474 26.772 39.565
H 19.583 26.124 39.649
H 21.261 26.428 40.239
C 20.097 28.094 40.154
O 20.922 28.896 40.637
O 18.767 28.432 39.982
N 17.624 27.217 32.812
C 16.873 27.557 33.909
C 15.73  28.282 33.534
C 15.861 28.449 32.138
C 17.043 27.774 31.758
C 14.652 28.867 34.466
H 14.968 28.925 35.487
H 14.453 29.799 34.006
H 13.775 28.196 34.409
C 15.001 29.239 31.243
H 15.426 29.774 30.375
C 13.609 29.206 31.395
H 13.137 28.685 32.235
H 12.937 29.665 30.7  
N 19.536 26.504 30.681
C 18.633 27.159 29.901
C 19.006 26.97  28.516
C 20.15  26.131 28.473
C 20.484 25.938 29.915
C 18.262 27.592 27.331
H 17.841 28.557 27.681
H 18.902 27.82  26.461
H 17.429 26.899 27.039
C 20.966 25.702 27.303
H 21.284 24.676 27.434
H 20.367 25.621 26.409
C 22.129 26.659 26.987
H 21.687 27.638 27.167
H 23.    26.606 27.645
H 22.555 26.654 26.029
N 21.274 25.307 32.71 
C 22.042 24.994 31.68 
C 23.273 24.314 32.189
C 23.166 24.416 33.549
C 21.906 25.019 33.837
C 24.37  23.848 31.461
H 24.403 24.289 30.448
H 25.303 24.145 31.956
H 24.261 22.763 31.485
C 23.789 24.093 34.846
O 24.76  23.444 35.145
C 22.849 24.658 35.932
H 23.289 25.52  36.396
C 22.645 23.516 36.838
O 21.825 22.565 36.744
O 23.496 23.608 37.867
C 23.597 22.563 38.835
H 24.147 22.995 39.679
H 22.632 22.189 39.138
H 24.165 21.674 38.523
C 18.441 29.756 40.494
H 19.073 30.601 40.142
H 18.482 29.607 41.566
C 17.074 30.273 40.045
H 16.261 30.422 40.813
C 16.639 30.54  38.786
C 17.417 30.524 37.422
H 17.228 31.562 37.059
H 18.44  30.274 37.403
H 16.932 29.836 36.686
C 15.115 30.805 38.625
H 14.486 30.225 39.29 
H 14.837 30.396 37.654
C 14.688 32.207 38.706
H 15.362 32.659 39.466
H 13.572 32.21  38.985
C 14.821 32.952 37.319
H 15.525 32.423 36.739
H 15.268 33.905 37.618
C 13.431 33.244 36.608
H 12.764 33.703 37.313
C 12.808 31.931 35.987
H 11.809 32.112 35.682
H 13.558 31.682 35.211
H 12.69  31.187 36.773
C 13.365 34.325 35.542
H 12.287 34.595 35.412
H 13.728 33.865 34.634
C 14.245 35.506 35.757
H 15.324 35.164 35.617
H 14.224 36.046 36.688
C 14.114 36.548 34.668
H 14.124 37.541 35.185
H 13.147 36.45  34.23 
C 15.374 36.704 33.678
H 15.584 35.623 33.441
C 16.547 37.343 34.393
H 17.274 37.709 33.67 
H 16.137 38.242 34.801
H 17.092 36.667 35.112
C 14.94  37.454 32.421
H 15.878 37.502 31.864
H 14.637 38.515 32.687
C 13.802 36.766 31.627
H 12.94  37.382 31.86 
H 13.671 35.736 31.955
C 14.131 36.731 30.072
H 15.219 36.908 29.887
H 13.583 37.481 29.546
C 13.968 35.324 29.433
H 13.043 34.919 29.807
C 15.078 34.388 29.978
H 15.941 34.645 29.3  
H 15.297 34.418 31.052
H 14.769 33.378 29.815
C 13.938 35.334 27.912
H 13.33  34.516 27.559
H 13.449 36.245 27.604
H 14.812 35.44  27.292
