137

Mg 35.596 32.064 36.721
C 32.966 31.176 34.555
C 37.828 30.673 34.455
H 38.501 30.222 33.73 
C 38.167 32.605 38.832
H 38.942 32.713 39.545
C 33.463 32.741 39.2  
H 32.82  33.086 39.938
N 35.427 31.214 34.667
C 34.24  30.921 33.939
C 34.575 30.327 32.627
H 33.964 29.42  32.557
C 36.094 30.076 32.67 
H 36.53  30.664 31.885
C 36.493 30.665 34.004
C 36.574 28.569 32.585
H 36.109 28.05  33.438
H 36.241 28.067 31.663
H 37.654 28.346 32.744
C 34.097 31.221 31.45 
H 34.593 32.152 31.539
H 33.083 31.425 31.509
C 34.357 30.594 30.017
H 35.238 30.954 29.603
H 34.395 29.561 30.128
C 33.282 30.798 29.06 
O 33.254 31.661 28.171
O 32.281 29.871 29.237
N 37.709 31.801 36.587
C 38.4   31.206 35.612
C 39.841 31.276 35.868
C 39.928 31.965 37.114
C 38.573 32.138 37.543
C 40.871 30.688 34.97 
H 41.479 30.073 35.573
H 40.396 30.094 34.24 
H 41.368 31.532 34.533
C 41.082 32.23  38.006
H 40.841 32.543 39.093
C 42.394 32.35  37.674
H 42.758 32.184 36.643
H 43.16  32.684 38.375
N 35.766 32.625 38.673
C 36.926 32.837 39.321
C 36.642 33.363 40.644
C 35.227 33.361 40.803
C 34.785 32.857 39.561
C 37.72  33.764 41.669
H 37.385 34.627 42.301
H 38.144 32.938 42.244
H 38.529 34.095 41.09 
C 34.35  33.884 41.984
H 33.5   33.263 42.186
H 34.951 33.977 42.908
C 33.743 35.294 41.878
H 33.43  35.501 42.937
H 34.52  35.957 41.599
H 32.791 35.376 41.263
N 33.632 31.978 36.887
C 32.873 32.305 38.014
C 31.451 32.07  37.702
C 31.446 31.732 36.357
C 32.797 31.653 35.868
C 30.272 32.141 38.667
H 30.524 31.886 39.679
H 29.906 33.162 38.726
H 29.513 31.42  38.334
C 30.585 31.295 35.227
O 29.376 31.183 35.121
C 31.503 30.905 34.076
H 31.184 31.578 33.254
C 31.213 29.527 33.56 
O 31.054 28.566 34.32 
O 31.249 29.397 32.203
C 31.225 28.028 31.738
H 30.259 27.612 31.937
H 31.453 28.041 30.636
H 32.011 27.398 32.254
C 31.203 30.012 28.239
H 31.657 29.926 27.217
H 30.707 30.963 28.32 
C 30.142 29.056 28.596
H 29.661 29.395 29.517
C 29.641 27.944 27.956
C 30.294 27.308 26.739
H 29.624 26.641 26.238
H 30.724 28.058 25.99 
H 31.194 26.785 27.009
C 28.499 27.184 28.66 
H 28.627 27.508 29.679
H 28.66  26.092 28.624
C 27.137 27.458 28.064
H 26.914 26.608 27.327
H 27.068 28.333 27.458
C 26.016 27.559 29.123
H 25.336 28.306 28.89 
H 26.508 27.736 30.127
C 25.115 26.366 29.3  
H 25.817 25.508 29.231
C 24.13  26.233 28.012
H 23.63  25.309 28.141
H 23.43  27.114 27.895
H 24.722 26.052 27.081
C 24.566 26.242 30.719
H 25.411 26.474 31.319
H 24.251 25.213 30.769
C 23.489 27.184 31.32 
H 22.616 26.523 31.435
H 23.218 28.02  30.712
C 23.801 27.826 32.63 
H 23.759 28.921 32.511
H 24.825 27.564 33.014
C 22.752 27.581 33.783
H 21.891 27.987 33.332
C 23.135 28.502 34.98 
H 23.364 29.521 34.67 
H 22.318 28.53  35.739
H 24.058 28.028 35.411
C 22.648 26.131 34.166
H 23.609 25.816 34.546
H 22.387 25.594 33.258
C 21.442 25.816 35.131
H 20.773 25.022 34.726
H 20.912 26.759 35.268
C 21.8   25.469 36.609
H 21.514 26.408 37.102
H 22.864 25.197 36.723
C 21.063 24.28  37.292
H 21.073 23.453 36.607
C 19.546 24.61  37.695
H 18.986 23.723 38.14 
H 19.444 25.435 38.453
H 19.031 24.933 36.839
C 21.8   23.879 38.479
H 22.965 24.013 38.438
H 21.52  24.371 39.303
H 21.584 22.798 38.661
