137

Mg 27.27  31.409 39.93 
C 25.22  28.69  39.386
C 25.014 33.324 38.221
H 24.256 34.052 37.86 
C 28.964 34.318 40.912
H 29.605 35.18  41.042
C 29.287 29.508 41.886
H 30.009 28.84  42.417
N 25.237 31.071 39.11 
C 24.597 29.836 38.884
C 23.185 29.973 38.187
H 23.304 29.255 37.334
C 23.273 31.465 37.731
H 22.471 32.062 38.153
C 24.59  31.992 38.371
C 23.191 31.795 36.168
H 22.767 32.893 36.235
H 24.171 31.781 35.728
H 22.453 31.108 35.738
C 21.973 29.449 39.075
H 22.114 29.866 40.057
H 22.049 28.328 39.179
C 20.66  29.869 38.481
H 20.706 30.369 37.553
H 20.142 28.933 38.238
C 19.637 30.541 39.457
O 18.647 30.049 39.924
O 19.974 31.858 39.597
N 27.103 33.497 39.542
C 26.142 34.028 38.754
C 26.338 35.529 38.742
C 27.596 35.75  39.335
C 27.926 34.526 39.968
C 25.42  36.402 38.013
H 25.449 37.463 38.173
H 25.654 36.304 36.882
H 24.356 36.208 38.17 
C 28.281 37.065 39.353
H 28.966 37.301 40.199
C 28.33  37.909 38.306
H 27.791 37.683 37.374
H 28.88  38.874 38.349
N 28.876 31.837 41.232
C 29.444 33.088 41.52 
C 30.654 32.908 42.322
C 30.711 31.542 42.624
C 29.611 30.886 41.83 
C 31.487 34.157 42.808
H 31.164 35.087 42.274
H 31.317 34.304 43.873
H 32.557 34.037 42.577
C 31.521 30.756 43.623
H 31.748 29.732 43.391
H 32.481 31.303 43.866
C 30.773 30.704 44.926
H 30.169 31.595 45.119
H 30.077 29.873 44.764
H 31.501 30.387 45.664
N 27.32  29.525 40.488
C 28.242 28.896 41.25 
C 27.789 27.509 41.471
C 26.681 27.384 40.613
C 26.405 28.629 40.106
C 28.348 26.51  42.436
H 28.546 27.062 43.379
H 27.679 25.64  42.611
H 29.25  26.144 41.964
C 25.696 26.405 40.132
O 25.6   25.188 40.327
C 24.667 27.31  39.352
H 23.669 27.168 39.749
C 24.688 26.846 37.919
O 25.614 26.927 37.144
O 23.41  26.508 37.577
C 23.308 26.142 36.117
H 22.394 25.54  36.123
H 23.097 26.905 35.339
H 24.114 25.532 35.705
C 19.065 32.515 40.565
H 19.262 32.128 41.563
H 18.049 32.291 40.275
C 19.25  33.988 40.455
H 20.285 34.244 40.393
C 18.344 35.027 40.416
C 16.856 34.904 40.565
H 16.522 33.942 40.758
H 16.556 35.523 41.396
H 16.486 35.307 39.577
C 18.767 36.507 40.471
H 19.873 36.595 40.425
H 18.536 36.696 41.521
C 18.114 37.539 39.537
H 18.681 38.402 39.534
H 17.184 37.764 40.028
C 17.798 37.078 38.071
H 16.697 37.105 37.905
H 18.071 36.061 37.995
C 18.497 37.999 36.924
H 18.202 39.021 36.968
C 17.794 37.637 35.546
H 18.03  38.378 34.81 
H 18.172 36.595 35.247
H 16.715 37.651 35.682
C 20.05  37.939 36.898
H 20.451 38.433 37.805
H 20.36  38.492 36.002
C 20.752 36.534 36.831
H 20.008 35.767 36.806
H 21.235 36.464 37.825
C 21.844 36.471 35.747
H 22.722 36.199 36.435
H 22.044 37.363 35.134
C 21.792 35.242 34.709
H 21.253 34.497 35.297
C 23.217 34.873 34.24 
H 23.282 34.094 33.496
H 23.68  35.763 33.777
H 23.776 34.554 35.098
C 20.926 35.611 33.551
H 21.285 36.447 32.988
H 20.035 36.057 34.016
C 20.683 34.506 32.567
H 20.948 33.552 32.988
H 21.372 34.544 31.774
C 19.213 34.5   32.146
H 18.559 35.003 32.904
H 19.013 33.415 32.135
C 18.874 34.909 30.683
H 19.512 34.329 29.971
C 19.252 36.36  30.456
H 19.095 36.535 29.366
H 18.521 36.896 30.997
H 20.313 36.611 30.644
C 17.407 34.536 30.299
H 16.679 35.187 30.821
H 17.137 34.673 29.204
H 17.139 33.528 30.557
