137

Mg 33.826 33.185 34.626
C 30.917 32.197 33.017
C 35.418 30.695 32.909
H 35.871 29.9   32.414
C 36.756 34.159 36.056
H 37.665 34.459 36.415
C 32.197 35.604 36.359
H 31.613 36.286 36.876
N 33.253 31.78  32.968
C 31.996 31.535 32.531
C 31.944 30.383 31.469
H 31.197 29.671 31.765
C 33.37  29.716 31.66 
H 33.952 29.573 30.709
C 34.064 30.801 32.545
C 33.325 28.322 32.414
H 34.274 27.729 32.366
H 33.044 28.628 33.413
H 32.469 27.841 31.998
C 31.645 30.844 30.073
H 32.458 31.431 29.642
H 30.813 31.542 30.226
C 31.185 29.795 29.01 
H 31.573 29.934 28.012
H 31.498 28.834 29.449
C 29.735 29.601 28.873
O 29.201 28.488 28.971
O 29.063 30.751 28.569
N 35.748 32.537 34.546
C 36.21  31.494 33.752
C 37.654 31.402 33.901
C 38.063 32.341 34.81 
C 36.825 33.069 35.195
C 38.477 30.319 33.13 
H 39.539 30.436 33.181
H 38.17  29.252 33.392
H 38.147 30.414 32.071
C 39.388 32.615 35.275
H 39.665 33.656 35.593
C 40.377 31.7   35.462
H 40.198 30.6   35.336
H 41.351 32.004 35.823
N 34.387 34.739 35.969
C 35.641 34.929 36.365
C 35.567 36.085 37.325
C 34.275 36.461 37.446
C 33.569 35.594 36.534
C 36.854 36.717 37.913
H 37.437 35.885 38.338
H 37.395 37.168 37.075
H 36.703 37.387 38.687
C 33.737 37.665 38.261
H 32.831 37.372 38.772
H 34.521 38.046 38.925
C 33.329 38.888 37.435
H 34.151 39.177 36.726
H 32.425 38.71  36.843
H 33.163 39.67  38.126
N 31.946 33.87  34.635
C 31.333 34.797 35.514
C 29.891 34.656 35.346
C 29.727 33.671 34.39 
C 30.96  33.206 34.037
C 28.797 35.353 36.029
H 28.753 35.229 37.103
H 28.906 36.424 35.873
H 27.882 34.93  35.703
C 28.706 32.916 33.543
O 27.452 32.967 33.531
C 29.42  31.897 32.723
H 29.345 32.012 31.704
C 29.001 30.589 33.141
O 29.099 30.034 34.255
O 28.29  30.032 32.091
C 27.949 28.668 32.283
H 28.703 28.131 32.792
H 27.065 28.597 32.915
H 27.779 28.341 31.25 
C 27.633 30.505 28.423
H 27.3   29.959 29.315
H 27.436 30.067 27.396
C 27.035 31.909 28.352
H 27.372 32.614 27.677
C 25.969 32.43  29.045
C 25.196 31.625 30.077
H 25.206 30.577 29.793
H 25.772 31.743 31.081
H 24.235 32.01  30.256
C 25.569 33.89  29.163
H 26.424 34.476 28.81 
H 25.291 34.235 30.191
C 24.348 34.237 28.333
H 24.317 33.616 27.508
H 24.541 35.292 27.976
C 23.05  34.261 29.132
H 23.    35.358 29.414
H 23.215 33.819 30.108
C 21.728 33.662 28.511
H 21.994 32.563 28.252
C 21.264 34.396 27.206
H 21.324 35.424 27.57 
H 21.896 34.163 26.362
H 20.208 34.171 26.955
C 20.449 33.57  29.511
H 19.591 33.347 28.938
H 20.236 34.579 29.844
C 20.729 32.625 30.744
H 20.959 33.267 31.646
H 21.625 32.006 30.457
C 19.596 31.626 30.979
H 20.029 30.676 30.612
H 18.652 31.746 30.474
C 19.265 31.294 32.53 
H 19.051 32.233 33.025
C 20.458 30.709 33.358
H 20.679 29.712 32.933
H 21.408 31.316 33.309
H 20.155 30.776 34.42 
C 18.059 30.366 32.545
H 18.238 29.444 32.05 
H 17.29  30.869 32.037
C 17.299 30.294 33.895
H 16.258 30.55  33.801
H 17.726 30.98  34.66 
C 17.215 28.796 34.283
H 17.972 28.209 33.743
H 16.181 28.541 33.92 
C 17.245 28.525 35.813
H 16.87  29.433 36.36 
C 18.729 28.486 36.303
H 18.754 27.991 37.288
H 19.324 27.862 35.579
H 19.24  29.477 36.248
C 16.424 27.287 36.262
H 16.354 27.158 37.328
H 15.35  27.377 35.839
H 16.845 26.287 35.904
