137

Mg 36.856 28.522 33.973
C 33.536 27.816 34.562
C 36.268 27.824 30.533
H 35.986 27.731 29.493
C 40.111 29.139 33.296
H 41.074 29.646 33.101
C 37.45  28.66  37.278
H 37.71  28.778 38.346
N 35.123 27.854 32.698
C 33.838 27.809 33.181
C 32.902 27.53  32.046
H 32.463 26.542 32.187
C 33.801 27.514 30.749
H 33.483 28.342 30.064
C 35.158 27.663 31.303
C 33.691 26.18  30.018
H 34.456 26.038 29.255
H 33.548 25.332 30.627
H 32.805 26.132 29.41 
C 31.766 28.639 31.902
H 32.142 29.631 31.738
H 31.289 28.785 32.884
C 30.744 28.338 30.789
H 30.395 29.172 30.245
H 31.128 27.592 30.068
C 29.4   27.594 31.317
O 29.375 26.522 31.936
O 28.263 28.206 30.801
N 38.03  28.4   32.245
C 37.559 28.2   30.95 
C 38.692 28.427 30.001
C 39.737 28.988 30.764
C 39.36  28.837 32.186
C 38.599 28.134 28.518
H 38.57  27.056 28.455
H 37.755 28.612 27.962
H 39.418 28.462 27.962
C 40.993 29.5   30.19 
H 40.975 30.255 29.401
C 42.219 29.157 30.684
H 42.392 28.444 31.474
H 43.153 29.608 30.253
N 38.523 28.689 35.065
C 39.731 29.022 34.602
C 40.626 29.19  35.715
C 39.878 29.08  36.891
C 38.555 28.888 36.441
C 42.127 29.456 35.557
H 42.471 30.055 36.411
H 42.698 28.508 35.581
H 42.408 29.914 34.626
C 40.246 29.179 38.371
H 39.648 28.6   39.108
H 41.297 28.883 38.458
C 40.158 30.623 38.846
H 40.533 30.574 39.847
H 40.878 31.201 38.251
H 39.13  30.927 38.772
N 35.774 28.314 35.656
C 36.117 28.442 36.96 
C 34.982 28.12  37.762
C 33.931 27.9   36.843
C 34.483 28.063 35.594
C 34.967 28.098 39.253
H 34.775 29.056 39.563
H 34.181 27.394 39.574
H 35.923 27.818 39.74 
C 32.579 27.537 36.764
O 31.713 27.371 37.655
C 32.163 27.634 35.213
H 31.548 28.538 35.138
C 31.447 26.374 35.061
O 31.97  25.325 35.096
O 30.097 26.704 34.938
C 29.316 25.504 34.713
H 29.809 24.893 33.904
H 29.163 24.747 35.51 
H 28.259 25.865 34.457
C 27.054 27.389 30.744
H 26.8   27.045 31.73 
H 27.237 26.622 30.064
C 25.933 28.141 30.168
H 26.262 28.972 29.496
C 24.655 28.258 30.524
C 24.001 27.574 31.775
H 22.951 27.357 31.554
H 24.461 26.614 31.919
H 24.124 28.21  32.635
C 23.763 29.245 29.837
H 24.415 29.96  29.301
H 23.31  29.86  30.595
C 22.644 28.652 28.96 
H 21.733 29.109 29.199
H 22.476 27.643 29.285
C 23.111 28.553 27.545
H 22.924 27.494 27.283
H 24.199 28.585 27.477
C 22.237 29.256 26.478
H 21.263 29.284 26.862
C 22.31  28.542 25.087
H 21.656 29.127 24.398
H 23.282 28.503 24.661
H 22.065 27.496 25.224
C 22.588 30.734 26.346
H 21.932 31.143 25.586
H 23.593 30.766 25.96 
C 22.65  31.761 27.564
H 23.625 31.701 27.978
H 21.92  31.438 28.338
C 22.62  33.252 27.032
H 22.737 33.252 25.968
H 23.449 33.68  27.515
C 21.229 33.962 27.36 
H 21.036 33.715 28.389
C 20.069 33.521 26.389
H 20.315 33.569 25.309
H 19.829 32.515 26.553
H 19.155 34.178 26.551
C 21.461 35.499 27.27 
H 20.466 35.953 27.237
H 21.731 35.709 26.269
C 22.493 36.231 28.167
H 23.323 36.529 27.497
H 22.897 35.638 28.975
C 21.891 37.59  28.75 
H 21.966 37.579 29.844
H 20.807 37.707 28.584
C 22.561 38.825 28.04 
H 22.471 38.852 26.958
C 24.098 39.03  28.233
H 24.262 39.042 29.316
H 24.771 38.329 27.817
H 24.379 40.045 27.947
C 21.861 40.098 28.518
H 22.213 40.873 27.892
H 20.835 40.033 28.289
H 21.949 40.321 29.558
