137

Mg 21.106 24.883 27.794
C 24.502 24.312 27.599
C 21.663 27.474 29.894
H 21.923 28.187 30.665
C 17.887 25.88  27.446
H 16.794 26.032 27.527
C 20.661 22.419 25.361
H 20.493 21.558 24.695
N 22.885 25.823 28.585
C 24.165 25.396 28.366
C 25.187 26.288 29.183
H 25.811 25.595 29.78 
C 24.22  26.993 30.124
H 24.475 28.044 30.225
C 22.787 26.769 29.491
C 24.308 26.265 31.483
H 23.921 25.233 31.463
H 25.253 26.277 31.888
H 23.686 26.809 32.162
C 25.963 27.249 28.248
H 25.188 27.872 27.884
H 26.206 26.714 27.37 
C 27.309 27.838 28.856
H 27.255 27.553 29.866
H 28.157 27.307 28.419
C 27.656 29.336 28.548
O 28.53  29.77  27.851
O 26.872 30.211 29.27 
N 19.954 26.265 28.76 
C 20.373 27.217 29.585
C 19.255 28.043 30.073
C 18.135 27.745 29.24 
C 18.647 26.593 28.398
C 19.466 29.246 30.935
H 19.94  28.927 31.852
H 20.175 29.836 30.366
H 18.478 29.728 31.014
C 16.8   28.414 29.231
H 16.37  28.865 30.175
C 15.941 28.585 28.193
H 16.131 28.378 27.103
H 15.086 29.21  28.313
N 19.505 24.18  26.603
C 18.26  24.726 26.632
C 17.382 23.819 25.896
C 18.163 22.799 25.307
C 19.521 23.136 25.701
C 15.884 23.976 25.736
H 15.634 24.981 26.073
H 15.539 23.981 24.675
H 15.46  23.182 26.386
C 17.81  21.59  24.424
H 18.238 20.641 24.852
H 16.726 21.446 24.365
C 18.218 21.885 23.081
H 19.262 22.091 23.027
H 18.034 21.036 22.434
H 17.669 22.701 22.582
N 22.241 23.498 26.843
C 21.953 22.57  25.85 
C 23.127 21.848 25.43 
C 24.152 22.52  26.125
C 23.594 23.472 26.965
C 23.18  20.729 24.402
H 23.124 19.711 24.846
H 22.369 20.897 23.732
H 24.12  20.75  23.796
C 25.655 22.541 26.268
O 26.563 21.865 25.776
C 25.891 23.773 27.234
H 26.523 24.539 26.784
C 26.591 23.283 28.418
O 26.113 23.047 29.491
O 27.93  23.199 28.13 
C 28.787 22.837 29.289
H 28.598 21.804 29.602
H 29.804 22.907 28.904
H 28.704 23.485 30.111
C 27.267 31.628 29.265
H 27.428 31.935 28.231
H 28.194 31.674 29.86 
C 26.018 32.421 29.863
H 25.349 31.774 30.468
C 25.476 33.602 29.572
C 26.081 34.641 28.633
H 26.727 34.249 27.837
H 25.2   35.113 28.188
H 26.624 35.388 29.201
C 24.166 34.029 30.147
H 23.754 33.186 30.709
H 23.398 34.158 29.375
C 24.314 35.329 31.107
H 25.361 35.543 31.364
H 23.786 35.198 32.026
C 23.657 36.523 30.375
H 23.327 36.287 29.394
H 24.428 37.336 30.306
C 22.465 37.343 31.025
H 22.73  37.743 31.985
C 21.318 36.408 31.403
H 20.988 35.946 30.477
H 21.639 35.632 31.996
H 20.541 36.935 31.982
C 22.051 38.549 30.137
H 21.143 38.893 30.539
H 21.782 38.272 29.147
C 23.098 39.685 30.064
H 23.476 39.762 29.   
H 23.955 39.406 30.736
C 22.509 40.996 30.493
H 23.122 41.449 31.369
H 21.557 40.84  30.98 
C 22.367 42.114 29.457
H 23.454 42.28  28.969
C 22.122 43.492 29.932
H 22.339 43.702 30.985
H 22.681 44.164 29.283
H 21.099 43.708 29.659
C 21.396 41.643 28.313
H 20.491 41.791 28.869
H 21.598 40.587 27.98 
C 21.516 42.508 27.082
H 21.782 41.965 26.131
H 22.358 43.213 27.221
C 20.255 43.337 26.744
H 20.614 44.36  26.713
H 19.637 43.278 27.625
C 19.548 43.05  25.393
H 19.24  42.026 25.357
C 20.433 43.301 24.081
H 20.003 42.867 23.226
H 20.288 44.383 23.979
H 21.449 42.958 24.207
C 18.252 43.76  25.295
H 18.282 44.812 25.591
H 17.887 43.579 24.292
H 17.567 43.348 26.06 
