137

Mg 20.956 25.538 37.923
C 19.563 22.56  38.677
C 21.212 24.511 34.622
H 21.472 24.206 33.653
C 21.532 28.748 36.98 
H 21.642 29.767 36.709
C 20.258 26.594 41.203
H 20.15  27.135 42.178
N 20.581 23.744 36.814
C 19.962 22.606 37.334
C 19.759 21.577 36.172
H 20.079 20.571 36.559
C 20.623 22.082 34.998
H 20.079 22.133 34.076
C 20.872 23.525 35.507
C 21.91  21.195 34.858
H 22.364 21.142 35.827
H 21.67  20.182 34.531
H 22.571 21.69  34.129
C 18.241 21.578 35.855
H 17.984 22.559 35.447
H 17.75  21.296 36.74 
C 17.707 20.431 34.952
H 18.493 19.663 34.825
H 16.914 19.893 35.407
C 17.383 20.722 33.44 
O 17.448 21.831 32.991
O 17.228 19.619 32.72 
N 21.38  26.51  36.134
C 21.347 25.899 34.869
C 21.69  26.997 33.88 
C 21.783 28.163 34.611
C 21.582 27.799 36.006
C 21.823 26.803 32.373
H 22.314 27.657 31.985
H 22.335 25.888 32.033
H 20.788 26.74  31.994
C 22.095 29.489 34.094
H 22.674 30.196 34.724
C 21.385 29.99  33.085
H 20.66  29.274 32.599
H 21.642 30.989 32.629
N 21.053 27.305 38.989
C 21.32  28.564 38.39 
C 21.352 29.605 39.406
C 20.966 28.979 40.577
C 20.773 27.541 40.312
C 21.656 31.083 39.219
H 21.072 31.739 39.877
H 22.703 31.209 39.423
H 21.314 31.382 38.252
C 20.764 29.754 41.895
H 21.369 29.3   42.706
H 21.258 30.723 41.802
C 19.353 29.956 42.409
H 19.284 30.555 43.3  
H 18.749 30.252 41.604
H 19.186 28.904 42.628
N 20.132 24.795 39.659
C 19.944 25.266 40.912
C 19.229 24.27  41.719
C 19.115 23.166 40.88 
C 19.698 23.548 39.635
C 18.704 24.331 43.119
H 18.329 25.29  43.497
H 17.857 23.594 43.159
H 19.385 24.048 43.858
C 18.622 21.823 40.887
O 18.038 21.129 41.719
C 19.009 21.322 39.497
H 18.124 20.903 38.967
C 19.892 20.242 39.547
O 20.963 20.219 40.082
O 19.393 19.132 38.88 
C 20.154 17.875 38.744
H 19.522 16.983 38.57 
H 20.8   17.965 37.922
H 20.753 17.652 39.746
C 17.225 19.863 31.276
H 18.069 20.498 30.949
H 16.276 20.38  31.046
C 17.375 18.473 30.751
H 18.354 17.957 30.896
C 16.438 17.867 30.056
C 15.11  18.392 29.65 
H 15.042 19.477 29.516
H 14.865 17.904 28.737
H 14.462 18.059 30.391
C 16.823 16.53  29.434
H 17.91  16.521 29.477
H 16.657 16.462 28.376
C 16.258 15.286 30.085
H 15.662 15.581 30.993
H 17.026 14.668 30.376
C 15.233 14.462 29.206
H 15.818 13.667 28.757
H 14.951 14.942 28.298
C 13.996 13.812 29.9  
H 14.342 13.095 30.683
C 13.187 13.007 28.843
H 12.294 12.593 29.232
H 12.95  13.651 28.028
H 13.755 12.115 28.543
C 13.032 14.935 30.606
H 13.593 15.514 31.333
H 12.274 14.265 31.053
C 12.376 16.008 29.704
H 12.644 15.761 28.706
H 12.745 16.996 29.915
C 10.823 15.904 29.708
H 10.542 14.962 30.124
H 10.492 15.923 28.646
C 10.064 17.086 30.396
H 10.408 17.89  29.793
C 10.44  17.305 31.879
H 10.029 18.21  32.245
H 10.13  16.564 32.532
H 11.495 17.465 31.967
C  8.509 16.924 30.32 
H  8.252 16.02  30.91 
H  8.201 16.721 29.281
C  7.643 18.162 30.669
H  8.047 19.101 30.247
H  7.587 18.314 31.703
C  6.163 18.103 30.131
H  5.507 18.197 30.956
H  5.939 17.091 29.777
C  5.498 19.265 29.308
H  5.582 20.087 30.032
C  4.026 19.041 29.06 
H  3.982 18.166 28.323
H  3.475 18.828 30.016
H  3.609 19.893 28.586
C  6.289 19.501 27.997
H  5.77  20.059 27.292
H  7.145 20.076 28.296
H  6.632 18.588 27.531
