137

Mg 26.601 33.062 32.724
C 24.726 31.999 35.419
C 23.89  34.511 31.542
H 23.039 34.997 31.076
C 28.471 34.312 30.281
H 29.026 34.591 29.385
C 29.405 32.121 34.56 
H 30.377 31.701 35.004
N 24.599 33.164 33.34 
C 23.997 32.633 34.484
C 22.484 32.914 34.582
H 21.987 31.985 34.579
C 22.238 33.539 33.179
H 21.769 34.514 33.174
C 23.683 33.72  32.645
C 21.344 32.704 32.24 
H 21.476 32.976 31.211
H 21.649 31.681 32.338
H 20.291 32.844 32.467
C 21.973 33.907 35.736
H 22.344 34.88  35.657
H 22.386 33.471 36.651
C 20.424 33.879 35.792
H 19.928 33.468 34.942
H 20.194 33.152 36.67 
C 19.81  35.23  36.031
O 19.678 35.783 37.106
O 19.382 35.834 34.845
N 26.24  34.127 31.131
C 25.061 34.66  30.81 
C 25.062 35.28  29.525
C 26.399 35.275 29.116
C 27.125 34.57  30.245
C 23.908 35.908 28.774
H 23.441 36.702 29.392
H 24.459 36.489 27.997
H 23.271 35.132 28.31 
C 27.064 35.883 27.911
H 27.268 35.232 27.066
C 27.389 37.182 27.89 
H 27.364 37.806 28.843
H 27.819 37.642 27.011
N 28.556 33.118 32.417
C 29.173 33.63  31.3  
C 30.652 33.354 31.371
C 30.878 32.763 32.622
C 29.58  32.648 33.263
C 31.633 33.725 30.311
H 32.588 33.756 30.651
H 31.591 32.983 29.486
H 31.437 34.652 29.833
C 32.282 32.267 33.018
H 32.144 31.223 33.396
H 32.94  32.193 32.15 
C 33.095 33.092 34.009
H 32.572 33.139 34.98 
H 34.014 32.401 34.123
H 33.384 34.01  33.636
N 27.017 32.238 34.448
C 28.167 31.836 35.138
C 27.915 31.179 36.398
C 26.534 31.166 36.461
C 26.072 31.795 35.353
C 28.854 30.71  37.396
H 29.764 31.368 37.307
H 28.374 30.736 38.344
H 29.126 29.685 36.985
C 25.505 30.685 37.323
O 25.516 30.16  38.411
C 24.286 31.267 36.64 
H 23.665 31.854 37.275
C 23.624 29.974 36.265
O 23.867 29.228 35.342
O 22.454 29.831 37.04 
C 21.667 28.678 36.797
H 20.779 28.793 37.367
H 21.479 28.472 35.751
H 22.209 27.77  37.091
C 18.595 37.045 35.044
H 19.306 37.715 35.482
H 17.756 36.991 35.656
C 18.18  37.646 33.748
H 19.002 37.749 33.093
C 16.993 38.112 33.322
C 15.822 38.1   34.231
H 14.891 37.808 33.785
H 15.956 37.547 35.176
H 15.812 39.123 34.575
C 16.986 38.901 32.017
H 17.925 39.221 31.651
H 16.443 39.829 32.259
C 16.173 38.113 30.988
H 15.809 37.146 31.351
H 16.875 37.779 30.195
C 14.89  38.799 30.387
H 15.003 39.887 30.365
H 14.153 38.519 31.181
C 14.369 38.296 28.983
H 15.063 38.712 28.244
C 13.087 39.053 28.572
H 13.261 40.085 28.423
H 12.884 38.569 27.607
H 12.287 38.848 29.294
C 14.314 36.724 28.692
H 15.345 36.337 28.688
H 13.962 36.525 27.633
C 13.259 35.975 29.56 
H 12.368 35.999 28.899
H 13.093 36.432 30.442
C 13.695 34.624 30.   
H 13.808 34.618 31.086
H 14.643 34.258 29.531
C 12.736 33.409 29.661
H 12.484 33.438 28.608
C 11.382 33.614 30.344
H 10.719 32.82  30.113
H 11.526 33.657 31.385
H 10.928 34.564 30.066
C 13.462 32.108 30.209
H 13.752 32.319 31.27 
H 14.41  32.034 29.668
C 12.873 30.757 29.801
H 11.812 30.721 30.105
H 13.381 29.982 30.378
C 12.999 30.48  28.267
H 13.832 29.885 28.181
H 13.248 31.368 27.672
C 11.786 29.653 27.567
H 11.702 28.749 28.115
C 12.133 29.155 26.161
H 11.245 28.721 25.685
H 12.402 29.956 25.514
H 12.996 28.455 26.202
C 10.418 30.43  27.501
H  9.664 29.772 27.059
H 10.032 30.601 28.517
H 10.497 31.332 26.907
