137

Mg 28.294 28.859 38.174
C 25.186 28.783 39.636
C 26.774 27.948 35.24 
H 26.41  27.636 34.253
C 31.096 29.592 36.565
H 31.989 29.929 35.898
C 29.681 29.759 41.22 
H 30.145 30.067 42.14 
N 26.223 28.434 37.503
C 25.101 28.431 38.293
C 23.841 28.141 37.52 
H 23.506 27.162 37.905
C 24.485 27.675 36.154
H 23.997 28.085 35.248
C 25.883 28.052 36.273
C 24.412 26.147 35.934
H 23.442 25.643 36.091
H 24.84  25.79  34.969
H 25.057 25.779 36.726
C 22.847 29.23  37.435
H 23.204 29.983 36.738
H 22.781 29.71  38.386
C 21.404 28.719 37.288
H 21.44  27.622 37.288
H 20.863 28.965 38.207
C 20.526 29.146 36.101
O 19.314 29.241 36.106
O 21.254 29.172 34.989
N 28.872 28.779 36.215
C 28.101 28.343 35.132
C 28.844 28.372 33.923
C 30.072 28.993 34.232
C 30.084 29.145 35.717
C 28.38  27.855 32.608
H 28.88  28.217 31.723
H 28.443 26.757 32.691
H 27.335 28.157 32.434
C 31.198 29.298 33.386
H 32.197 29.123 33.797
C 31.129 29.848 32.158
H 30.156 30.257 31.691
H 32.012 29.956 31.483
N 30.126 29.536 38.789
C 31.147 29.796 37.932
C 32.253 30.48  38.691
C 31.868 30.443 40.02 
C 30.484 29.875 40.078
C 33.573 30.864 38.068
H 34.017 30.027 37.52 
H 33.323 31.594 37.242
H 34.205 31.304 38.822
C 32.684 30.938 41.164
H 32.059 30.794 42.087
H 33.627 30.434 41.232
C 32.854 32.444 41.176
H 31.919 33.013 41.226
H 33.517 32.709 42.019
H 33.387 32.832 40.266
N 27.629 29.042 40.107
C 28.256 29.421 41.239
C 27.304 29.409 42.41 
C 26.103 29.095 41.765
C 26.329 28.964 40.395
C 27.658 29.734 43.928
H 28.647 30.268 44.018
H 26.954 30.474 44.359
H 27.71  28.899 44.586
C 24.834 28.921 42.049
O 24.242 28.958 43.078
C 24.098 28.851 40.744
H 23.453 29.706 40.666
C 23.267 27.596 40.77 
O 23.751 26.453 40.576
O 21.962 27.88  40.97 
C 21.125 26.641 40.891
H 21.531 25.904 41.582
H 20.108 26.873 41.231
H 21.097 26.264 39.78 
C 20.391 29.306 33.817
H 19.947 30.21  33.623
H 19.506 28.604 33.789
C 21.176 29.044 32.56 
H 22.269 29.153 32.523
C 20.649 28.618 31.388
C 19.117 28.537 31.082
H 19.007 29.08  30.126
H 18.846 27.479 30.963
H 18.527 29.107 31.799
C 21.619 28.294 30.263
H 22.515 28.926 30.445
H 21.155 28.585 29.362
C 22.068 26.82  30.215
H 21.664 26.256 31.078
H 23.086 26.758 30.484
C 21.828 26.203 28.833
H 22.836 26.38  28.367
H 21.047 26.76  28.271
C 21.407 24.69  28.847
H 22.059 24.29  29.59 
C 21.687 23.961 27.489
H 21.187 23.051 27.619
H 21.176 24.573 26.693
H 22.734 23.675 27.298
C 19.901 24.573 29.348
H 19.872 25.061 30.26 
H 19.658 23.601 29.554
C 18.787 25.111 28.406
H 19.349 25.391 27.493
H 18.362 25.999 28.894
C 17.669 24.01  28.184
H 17.863 23.083 28.663
H 17.663 23.785 27.096
C 16.298 24.486 28.644
H 16.155 25.434 28.235
C 16.172 24.632 30.174
H 16.239 23.638 30.654
H 16.874 25.335 30.53 
H 15.244 25.138 30.508
C 15.174 23.597 27.976
H 15.152 22.673 28.538
H 15.37  23.344 26.992
C 13.739 24.104 28.167
H 13.27  24.393 27.196
H 13.742 25.056 28.748
C 12.796 23.167 28.912
H 13.251 22.181 28.86 
H 11.885 23.116 28.301
C 12.381 23.61  30.376
H 13.235 23.62  30.986
C 11.347 22.507 30.914
H 11.631 21.487 30.824
H 11.069 22.736 31.884
H 10.398 22.737 30.348
C 11.786 25.05  30.384
H 12.524 25.785 30.471
H 11.283 25.252 29.453
H 11.079 25.302 31.154
