137

Mg 23.28  30.688 34.786
C 22.292 29.032 37.821
C 19.844 30.348 33.886
H 18.829 30.427 33.522
C 23.96  32.291 32.061
H 24.144 32.692 31.113
C 26.425 30.77  35.92 
H 27.414 30.873 36.37 
N 21.337 29.769 35.758
C 21.208 29.132 36.979
C 19.739 28.748 37.329
H 19.657 27.702 37.525
C 19.001 29.066 35.962
H 18.234 29.875 35.916
C 20.089 29.758 35.116
C 18.531 27.791 35.216
H 18.194 28.027 34.246
H 19.429 27.178 35.11 
H 17.853 27.147 35.705
C 19.066 29.495 38.578
H 19.072 30.557 38.456
H 19.535 29.148 39.464
C 17.537 29.112 38.689
H 17.135 28.465 37.862
H 17.366 28.589 39.617
C 16.424 30.227 38.688
O 15.768 30.57  39.638
O 16.398 30.791 37.432
N 22.117 31.211 33.141
C 20.741 30.995 32.996
C 20.469 31.478 31.604
C 21.609 32.059 31.054
C 22.631 31.825 32.027
C 19.079 31.654 31.039
H 18.771 32.675 31.37 
H 18.934 31.656 29.951
H 18.397 30.905 31.472
C 21.754 32.846 29.753
H 22.694 32.827 29.233
C 20.783 33.642 29.204
H 19.875 33.767 29.788
H 20.989 34.211 28.242
N 25.022 31.43  34.122
C 25.066 32.079 32.976
C 26.39  32.708 32.939
C 27.138 32.18  34.006
C 26.212 31.396 34.696
C 26.936 33.479 31.709
H 27.034 32.81  30.808
H 26.285 34.143 31.201
H 27.824 34.015 31.895
C 28.642 32.354 34.312
H 29.045 31.418 34.792
H 29.158 32.43  33.336
C 28.97  33.429 35.386
H 29.96  33.166 35.653
H 28.889 34.48  35.089
H 28.348 33.176 36.313
N 24.196 30.166 36.423
C 25.514 30.18  36.816
C 25.785 29.573 38.111
C 24.557 29.069 38.438
C 23.643 29.497 37.445
C 27.161 29.43  38.741
H 27.066 28.972 39.735
H 27.655 28.748 38.081
H 27.723 30.362 38.902
C 23.862 28.324 39.528
O 24.348 27.796 40.52 
C 22.33  28.419 39.246
H 21.921 28.957 40.116
C 21.88  26.955 39.17 
O 22.258 26.036 38.423
O 20.817 26.769 40.044
C 20.336 25.393 39.982
H 20.116 25.108 38.961
H 21.132 24.742 40.357
H 19.429 25.301 40.633
C 15.413 31.869 37.26 
H 15.565 32.737 37.907
H 14.38  31.531 37.359
C 15.64  32.313 35.836
H 15.168 31.609 35.2  
C 16.281 33.447 35.35 
C 16.989 34.5   36.253
H 16.614 35.446 35.922
H 16.625 34.325 37.203
H 18.047 34.583 36.245
C 16.306 33.799 33.849
H 16.184 32.916 33.222
H 17.23  34.294 33.649
C 15.153 34.695 33.323
H 14.517 35.149 34.096
H 14.457 33.982 32.961
C 15.514 35.636 32.158
H 14.798 35.417 31.367
H 16.496 35.44  31.709
C 15.482 37.171 32.445
H 14.507 37.279 32.802
C 15.552 37.976 31.164
H 15.174 39.022 31.256
H 16.456 37.878 30.619
H 14.824 37.586 30.469
C 16.45  37.677 33.589
H 16.242 37.062 34.494
H 16.071 38.704 33.825
C 17.985 37.735 33.255
H 18.301 37.044 32.495
H 18.503 37.367 34.105
C 18.47  39.129 33.047
H 19.246 39.327 33.818
H 17.729 39.904 33.148
C 19.096 39.265 31.59 
H 18.473 38.781 30.798
C 20.42  38.494 31.415
H 20.681 38.493 30.407
H 21.262 39.012 31.935
H 20.476 37.413 31.727
C 19.28  40.765 31.167
H 19.584 40.799 30.111
H 19.945 41.308 31.812
C 17.981 41.73  31.314
H 18.283 42.371 32.089
H 17.112 41.132 31.49 
C 17.838 42.551 30.025
H 16.766 42.739 29.843
H 18.17  41.859 29.184
C 18.56  43.949 29.857
H 19.278 43.904 30.613
C 17.548 45.146 30.1  
H 18.017 46.077 30.272
H 16.883 45.227 29.218
H 16.875 44.861 30.968
C 19.184 44.189 28.468
H 19.764 45.127 28.522
H 19.832 43.414 28.025
H 18.364 44.312 27.758
