137

Mg 20.31  23.991 31.264
C 23.242 22.356 30.354
C 22.216 26.412 32.65 
H 22.769 27.171 33.187
C 17.606 25.845 31.564
H 16.657 26.406 31.771
C 18.467 21.381 30.047
H 17.899 20.554 29.737
N 22.488 24.279 31.486
C 23.518 23.495 31.049
C 24.887 24.131 31.324
H 25.398 23.411 31.856
C 24.542 25.27  32.347
H 24.956 26.154 31.934
C 22.973 25.339 32.179
C 25.006 25.07  33.792
H 24.428 24.356 34.449
H 26.028 24.737 33.671
H 25.092 26.033 34.331
C 25.66  24.497 29.998
H 24.993 25.215 29.459
H 25.817 23.617 29.228
C 27.006 25.181 29.988
H 27.29  25.299 31.004
H 27.773 24.533 29.526
C 27.226 26.588 29.459
O 27.796 26.931 28.421
O 26.453 27.508 30.19 
N 20.004 25.977 31.931
C 20.86  26.824 32.498
C 20.215 28.113 32.789
C 18.897 27.95  32.481
C 18.783 26.565 31.911
C 20.982 29.246 33.416
H 21.129 29.939 32.616
H 20.343 29.68  34.197
H 21.961 29.004 33.826
C 17.869 28.946 32.475
H 16.859 28.556 32.401
C 18.015 30.277 32.452
H 18.951 30.837 32.398
H 17.175 30.852 32.158
N 18.353 23.63  30.922
C 17.364 24.558 31.143
C 16.025 24.06  30.832
C 16.314 22.676 30.578
C 17.745 22.471 30.544
C 14.766 24.772 30.821
H 14.493 24.781 31.927
H 14.827 25.791 30.445
H 14.024 24.18  30.284
C 15.292 21.597 30.212
H 14.384 22.103 30.077
H 15.478 21.115 29.246
C 15.127 20.546 31.331
H 14.58  20.951 32.191
H 14.735 19.613 30.884
H 16.127 20.282 31.762
N 20.655 22.227 30.356
C 19.835 21.283 29.864
C 20.594 20.252 29.216
C 21.931 20.555 29.427
C 21.944 21.813 30.112
C 19.968 18.932 28.714
H 20.388 18.005 29.034
H 18.98  18.768 28.999
H 19.895 18.965 27.673
C 23.247 20.105 29.301
O 23.641 19.058 28.777
C 24.179 21.253 29.79 
H 24.676 21.614 28.861
C 25.117 20.665 30.76 
O 24.802 20.384 31.931
O 26.425 20.555 30.228
C 27.286 19.584 30.936
H 28.344 19.838 30.693
H 27.287 19.773 32.05 
H 27.099 18.524 30.746
C 26.44  28.815 29.551
H 25.891 28.915 28.605
H 27.449 29.072 29.369
C 25.985 29.738 30.537
H 26.53  29.634 31.451
C 25.01  30.661 30.474
C 24.19  31.04  29.266
H 24.404 30.517 28.338
H 23.101 30.869 29.454
H 24.329 32.112 29.064
C 24.659 31.412 31.724
H 24.89  30.916 32.682
H 23.516 31.54  31.667
C 25.128 32.847 31.854
H 26.07  32.968 31.312
H 25.491 32.973 32.865
C 24.15  33.976 31.39 
H 23.482 33.583 30.642
H 24.792 34.708 30.851
C 23.268 34.647 32.409
H 24.039 35.299 32.958
C 22.703 33.592 33.384
H 23.383 32.888 33.799
H 22.246 34.195 34.169
H 21.849 33.016 32.975
C 22.077 35.545 31.982
H 21.494 35.811 32.903
H 21.414 34.973 31.382
C 22.485 36.985 31.412
H 21.57  37.352 31.04 
H 23.082 36.989 30.419
C 23.228 37.88  32.418
H 24.263 37.812 32.063
H 23.263 37.337 33.298
C 22.711 39.336 32.55 
H 21.665 39.129 32.738
C 22.793 40.058 31.266
H 23.869 39.922 30.93 
H 22.03  39.597 30.585
H 22.559 41.149 31.342
C 23.355 40.206 33.778
H 24.317 40.555 33.547
H 23.465 39.525 34.628
C 22.434 41.305 34.419
H 22.081 41.038 35.404
H 21.544 41.384 33.8  
C 23.152 42.661 34.536
H 24.184 42.687 34.036
H 23.337 43.077 35.521
C 22.649 43.827 33.71 
H 22.819 43.698 32.657
C 23.392 45.174 34.088
H 22.968 45.998 33.513
H 23.184 45.329 35.103
H 24.484 45.177 33.981
C 21.189 44.164 33.985
H 21.084 44.538 34.976
H 20.85  44.907 33.355
H 20.55  43.288 33.983
