137

Mg 36.187 31.687 36.54 
C 33.278 30.757 35.054
C 37.963 31.038 33.62 
H 38.589 30.816 32.752
C 38.98  32.889 37.985
H 39.876 33.232 38.47 
C 34.624 31.856 39.587
H 34.093 31.918 40.515
N 35.627 30.927 34.583
C 34.355 30.699 34.16 
C 34.33  30.222 32.715
H 33.715 29.298 32.543
C 35.872 30.038 32.401
H 36.148 30.657 31.505
C 36.517 30.685 33.537
C 36.253 28.58  32.293
H 37.21  28.52  31.801
H 36.35  28.205 33.25 
H 35.564 28.063 31.687
C 33.587 31.265 31.77 
H 33.968 32.284 31.853
H 32.508 31.31  32.137
C 33.659 30.894 30.254
H 34.142 31.707 29.738
H 34.419 30.132 30.042
C 32.404 30.642 29.371
O 32.078 29.625 28.786
O 31.683 31.781 29.221
N 38.122 32.025 35.881
C 38.628 31.654 34.671
C 39.965 32.228 34.62 
C 40.323 32.699 35.846
C 39.112 32.657 36.614
C 40.865 32.1   33.398
H 41.5   31.23  33.362
H 40.31  32.066 32.503
H 41.503 33.022 33.485
C 41.664 33.145 36.306
H 41.734 34.072 36.877
C 42.835 32.584 35.978
H 42.928 31.668 35.38 
H 43.767 32.949 36.392
N 36.754 32.156 38.492
C 37.988 32.658 38.891
C 38.032 32.833 40.29 
C 36.738 32.596 40.749
C 35.995 32.135 39.616
C 39.153 33.407 41.095
H 39.284 32.894 41.958
H 40.128 33.405 40.621
H 38.918 34.382 41.379
C 36.215 32.72  42.106
H 35.434 31.946 42.338
H 37.034 32.637 42.807
C 35.377 34.007 42.298
H 35.094 34.003 43.327
H 35.911 35.026 42.054
H 34.465 34.089 41.683
N 34.402 31.367 37.226
C 33.887 31.553 38.489
C 32.487 31.139 38.503
C 32.182 30.871 37.153
C 33.434 30.98  36.425
C 31.587 30.906 39.699
H 30.672 31.501 39.575
H 31.358 29.799 39.708
H 32.119 31.168 40.617
C 31.087 30.51  36.213
O 29.896 30.256 36.315
C 31.775 30.551 34.861
H 31.327 31.359 34.235
C 31.434 29.296 34.153
O 31.558 28.144 34.521
O 30.99  29.605 32.857
C 30.683 28.47  32.038
H 31.555 27.864 31.91 
H 29.944 27.853 32.48 
H 30.308 28.703 30.993
C 30.459 31.612 28.449
H 29.925 30.715 28.799
H 30.858 31.45  27.452
C 29.596 32.822 28.289
H 30.096 33.785 28.231
C 28.236 32.916 28.172
C 27.255 31.755 28.371
H 26.165 31.922 28.246
H 27.428 30.781 27.863
H 27.384 31.485 29.388
C 27.494 34.204 27.975
H 28.105 34.984 28.484
H 26.559 34.166 28.592
C 27.301 34.764 26.586
H 27.76  34.069 25.908
H 27.892 35.737 26.498
C 25.79  34.946 26.294
H 25.644 35.847 25.687
H 25.309 35.076 27.244
C 25.08  33.724 25.539
H 25.455 32.827 26.092
C 25.445 33.648 24.04 
H 25.161 34.514 23.467
H 26.493 33.493 23.903
H 24.952 32.696 23.727
C 23.513 33.781 25.681
H 22.887 33.202 24.925
H 23.243 34.799 25.566
C 22.922 33.399 27.044
H 23.66  32.933 27.768
H 22.162 32.682 26.904
C 22.205 34.484 27.834
H 21.177 34.418 27.688
H 22.515 35.437 27.435
C 22.477 34.642 29.397
H 23.547 34.691 29.63 
C 21.84  33.47  30.182
H 21.719 33.618 31.265
H 20.908 33.126 29.64 
H 22.456 32.518 30.059
C 21.854 35.978 29.926
H 20.782 35.856 29.899
H 22.163 36.75  29.202
C 22.115 36.432 31.369
H 22.89  37.175 31.443
H 22.41  35.587 31.891
C 20.86  36.908 32.201
H 19.91  36.517 31.779
H 20.911 37.987 31.953
C 20.899 36.568 33.683
H 21.811 36.853 34.134
C 20.728 35.01  33.794
H 20.155 34.653 34.674
H 20.231 34.683 32.922
H 21.672 34.427 33.727
C 19.79  37.261 34.433
H 19.898 37.006 35.49 
H 19.865 38.368 34.312
H 18.873 36.808 34.075
