137

Mg 29.4   30.188 33.223
C 26.811 29.64  35.448
C 27.158 30.762 30.797
H 26.436 30.947 30.06 
C 31.953 31.332 31.321
H 32.788 31.62  30.627
C 31.683 29.737 35.829
H 32.233 29.563 36.758
N 27.301 30.152 33.085
C 26.372 29.916 34.12 
C 24.989 29.832 33.596
H 24.798 28.702 33.653
C 25.117 30.102 32.058
H 24.589 31.011 31.893
C 26.646 30.32  31.986
C 24.591 28.957 31.106
H 24.746 29.28  30.077
H 25.036 27.945 31.34 
H 23.505 28.749 31.298
C 24.052 30.696 34.336
H 24.215 31.737 34.007
H 24.213 30.695 35.447
C 22.616 30.225 34.073
H 22.597 29.224 33.749
H 22.09  30.415 34.961
C 21.85  30.979 32.925
O 22.336 31.78  32.126
O 20.57  30.567 33.004
N 29.548 30.945 31.32 
C 28.442 31.067 30.499
C 28.944 31.621 29.221
C 30.338 31.674 29.33 
C 30.665 31.369 30.749
C 28.134 32.058 28.02 
H 27.615 31.136 27.578
H 27.514 32.833 28.447
H 28.847 32.525 27.367
C 31.261 31.967 28.259
H 32.018 32.656 28.539
C 31.202 31.478 26.992
H 30.468 30.754 26.719
H 31.965 31.732 26.309
N 31.412 30.486 33.527
C 32.281 30.873 32.573
C 33.614 30.763 33.134
C 33.496 30.522 34.501
C 32.12  30.253 34.684
C 34.88  31.08  32.288
H 35.446 31.828 32.83 
H 35.59  30.276 32.058
H 34.584 31.579 31.381
C 34.623 30.589 35.465
H 34.768 29.585 35.954
H 35.637 30.739 35.015
C 34.487 31.673 36.456
H 33.517 31.502 36.898
H 35.231 31.573 37.217
H 34.348 32.701 36.042
N 29.32  29.753 35.265
C 30.327 29.426 36.15 
C 29.793 28.962 37.398
C 28.372 29.112 37.195
C 28.173 29.559 35.861
C 30.536 28.5   38.608
H 30.351 27.377 38.699
H 31.582 28.58  38.481
H 30.255 28.974 39.495
C 27.092 28.935 37.813
O 26.776 28.645 38.963
C 26.066 29.25  36.729
H 25.286 29.997 37.056
C 25.406 27.912 36.538
O 25.964 26.842 36.192
O 24.051 28.036 36.74 
C 23.131 27.04  36.236
H 23.556 26.026 36.256
H 22.174 27.075 36.825
H 22.769 27.357 35.23 
C 19.61  31.392 32.285
H 19.96  32.233 31.651
H 18.993 31.889 33.053
C 18.763 30.396 31.446
H 18.453 29.55  32.071
C 18.28  30.539 30.18 
C 18.801 31.672 29.306
H 18.768 31.273 28.294
H 18.189 32.572 29.431
H 19.763 31.96  29.589
C 17.335 29.524 29.499
H 17.094 28.716 30.183
H 17.934 29.05  28.691
C 16.061 30.136 28.864
H 16.03  31.178 28.902
H 15.25  29.937 29.504
C 15.831 29.685 27.413
H 16.806 29.434 26.998
H 15.498 30.535 26.84 
C 14.995 28.473 27.168
H 15.28  27.684 27.881
C 15.108 27.957 25.715
H 16.105 27.483 25.567
H 14.278 27.223 25.581
H 14.947 28.68  24.987
C 13.542 28.591 27.516
H 13.487 28.749 28.575
H 13.074 27.62  27.322
C 12.603 29.672 26.918
H 13.104 30.296 26.186
H 12.349 30.4   27.716
C 11.272 29.061 26.312
H 11.258 27.977 26.348
H 11.248 29.354 25.315
C  9.98  29.72  26.859
H 10.054 30.805 26.711
C  9.87  29.491 28.406
H  9.22  28.677 28.474
H 10.892 29.402 28.892
H  9.233 30.381 28.776
C  8.825 29.067 26.083
H  8.71  28.044 26.374
H  9.053 29.093 25.029
C  7.468 29.821 26.396
H  7.681 30.501 27.152
H  6.722 29.193 26.849
C  6.77  30.57  25.211
H  7.376 30.673 24.357
H  6.541 31.622 25.457
C  5.426 30.022 24.791
H  5.373 28.937 24.76 
C  5.099 30.335 23.357
H  5.782 29.87  22.685
H  4.072 30.176 23.069
H  5.364 31.415 23.247
C  4.245 30.424 25.728
H  4.441 30.502 26.799
H  3.899 31.443 25.519
H  3.436 29.728 25.511
