137

Mg 35.67  30.328 32.323
C 32.538 28.848 32.331
C 36.33  28.436 29.496
H 36.572 27.811 28.583
C 38.629 31.809 32.118
H 39.672 32.322 32.115
C 34.804 32.01  35.082
H 34.591 32.509 36.031
N 34.523 28.899 30.975
C 33.215 28.474 31.175
C 32.653 27.451 30.16 
H 32.402 26.512 30.734
C 33.986 27.106 29.445
H 33.956 27.161 28.358
C 35.061 28.189 29.94 
C 34.451 25.695 29.789
H 35.54  25.411 29.68 
H 34.328 25.666 30.908
H 33.834 24.936 29.259
C 31.413 27.947 29.358
H 31.712 28.773 28.692
H 30.712 28.355 30.065
C 30.762 26.975 28.312
H 30.905 27.411 27.375
H 31.289 26.044 28.398
C 29.331 26.621 28.501
O 28.81  25.589 28.896
O 28.623 27.708 28.028
N 37.187 30.117 31.054
C 37.308 29.336 29.937
C 38.65  29.419 29.347
C 39.283 30.378 30.126
C 38.343 30.804 31.145
C 38.991 28.69  28.06 
H 38.54  27.691 27.949
H 38.644 29.331 27.193
H 40.057 28.634 28.047
C 40.634 30.839 29.89 
H 40.93  31.072 28.783
C 41.483 30.87  30.92 
H 41.145 30.476 31.884
H 42.539 30.989 30.74 
N 36.467 31.758 33.294
C 37.777 32.173 33.111
C 38.129 33.174 34.104
C 36.966 33.33  34.917
C 36.011 32.344 34.459
C 39.431 33.909 34.137
H 39.562 34.33  33.16 
H 39.492 34.716 34.876
H 40.155 33.129 34.28 
C 36.677 34.243 36.132
H 36.327 33.667 37.042
H 37.56  34.707 36.422
C 35.738 35.295 35.68 
H 35.481 35.847 36.507
H 36.229 35.985 35.017
H 34.89  34.726 35.356
N 34.077 30.396 33.593
C 33.832 31.136 34.706
C 32.531 30.875 35.305
C 31.974 29.88  34.409
C 32.967 29.756 33.397
C 32.062 31.456 36.555
H 31.377 32.177 36.173
H 31.607 30.758 37.227
H 32.842 31.975 37.105
C 30.785 29.106 34.052
O 29.779 28.9   34.701
C 31.106 28.471 32.669
H 30.439 28.993 31.965
C 30.956 27.013 32.827
O 31.862 26.246 33.017
O 29.715 26.662 32.511
C 29.695 25.253 32.161
H 28.656 24.977 32.023
H 30.261 25.075 31.269
H 30.032 24.742 33.054
C 27.215 27.5   27.781
H 26.813 27.288 28.691
H 27.043 26.677 27.126
C 26.709 28.83  27.172
H 26.631 28.819 26.148
C 26.2   29.825 27.922
C 25.957 29.846 29.428
H 25.986 30.758 29.924
H 25.021 29.327 29.614
H 26.742 29.226 29.777
C 25.696 31.043 27.196
H 25.622 30.73  26.166
H 26.469 31.786 27.092
C 24.266 31.492 27.45 
H 23.84  31.22  28.402
H 23.608 31.029 26.707
C 23.937 33.05  27.491
H 24.898 33.618 27.308
H 23.638 33.311 28.545
C 23.01  33.731 26.431
H 22.143 33.1   26.141
C 23.81  33.885 25.109
H 24.496 34.822 25.063
H 24.332 33.086 24.66 
H 23.081 34.235 24.476
C 22.427 35.038 26.979
H 22.183 35.65  26.112
H 23.232 35.623 27.529
C 21.274 34.82  28.041
H 21.193 33.752 28.202
H 20.357 35.143 27.593
C 21.328 35.69  29.313
H 20.575 36.478 29.296
H 22.286 36.195 29.342
C 21.271 34.848 30.704
H 21.951 33.974 30.562
C 19.848 34.217 30.956
H 19.734 33.535 30.135
H 20.028 33.587 31.841
H 18.982 34.894 31.036
C 21.852 35.645 31.917
H 21.415 35.19  32.812
H 21.536 36.642 31.837
C 23.413 35.616 31.85 
H 23.748 36.504 31.324
H 23.852 34.632 31.496
C 24.005 35.735 33.246
H 23.291 36.004 34.097
H 24.722 36.513 33.164
C 24.843 34.499 33.766
H 25.368 34.001 32.949
C 24.031 33.341 34.303
H 24.603 32.654 34.96 
H 23.158 33.683 34.945
H 23.568 32.801 33.501
C 25.919 34.913 34.784
H 26.481 34.005 35.107
H 26.648 35.616 34.341
H 25.432 35.288 35.645
