137

Mg 28.419 29.782 36.615
C 27.704 27.08  38.598
C 28.222 27.757 33.875
H 28.123 27.219 32.952
C 29.689 32.277 34.77 
H 30.015 33.133 34.138
C 29.066 31.604 39.557
H 29.103 32.129 40.468
N 28.03  27.642 36.303
C 27.74  26.711 37.246
C 27.345 25.302 36.633
H 27.983 24.529 37.061
C 27.613 25.637 35.182
H 26.684 25.504 34.646
C 27.934 27.086 35.083
C 28.723 24.724 34.467
H 29.666 25.007 34.906
H 28.49  23.654 34.739
H 28.715 24.868 33.381
C 25.868 24.756 36.99 
H 25.093 25.435 36.53 
H 25.592 24.851 38.084
C 25.55  23.304 36.483
H 26.237 22.96  35.741
H 25.908 22.634 37.281
C 24.145 23.001 36.037
O 23.167 23.602 36.301
O 24.166 21.852 35.328
N 28.745 30.01  34.615
C 28.538 29.103 33.622
C 28.732 29.696 32.354
C 29.33  30.898 32.534
C 29.293 31.104 34.036
C 28.356 29.057 30.978
H 27.381 28.57  30.974
H 28.3   29.894 30.304
H 29.022 28.345 30.583
C 29.883 31.969 31.533
H 29.858 33.063 31.801
C 30.416 31.623 30.333
H 30.419 30.552 30.029
H 30.836 32.413 29.686
N 29.188 31.614 37.027
C 29.658 32.504 36.118
C 29.972 33.789 36.787
C 29.634 33.621 38.118
C 29.289 32.252 38.293
C 30.479 35.054 36.149
H 29.658 35.719 35.883
H 31.093 35.437 36.907
H 31.051 34.87  35.326
C 29.639 34.658 39.195
H 30.057 34.237 40.11 
H 30.177 35.535 38.972
C 28.247 35.136 39.473
H 27.937 35.771 38.643
H 27.706 34.251 39.765
H 28.39  35.711 40.391
N 28.397 29.46  38.722
C 28.735 30.251 39.761
C 28.503 29.59  41.019
C 28.201 28.302 40.607
C 28.075 28.304 39.225
C 28.597 30.183 42.47 
H 28.362 29.346 43.142
H 29.592 30.512 42.628
H 27.861 30.937 42.721
C 27.925 26.901 41.032
O 27.862 26.365 42.127
C 27.385 26.152 39.775
H 26.319 25.889 39.896
C 28.207 24.871 39.709
O 29.268 24.654 39.119
O 27.507 23.91  40.423
C 28.117 22.59  40.588
H 28.564 22.272 39.646
H 28.871 22.659 41.309
H 27.402 21.904 41.08 
C 22.789 21.387 35.012
H 22.093 22.037 34.48 
H 22.447 21.116 35.992
C 22.95  20.26  34.115
H 23.595 19.614 34.65 
C 22.35 19.85 32.96
C 21.415 20.638 32.14 
H 20.488 20.051 31.86 
H 21.079 21.58  32.62 
H 21.996 20.942 31.23 
C 22.699 18.534 32.375
H 23.488 18.063 32.972
H 23.006 18.693 31.318
C 21.585 17.448 32.375
H 20.721 17.742 32.971
H 22.052 16.621 32.941
C 21.07  17.052 30.993
H 21.207 17.901 30.301
H 20.059 16.881 31.025
C 21.809 15.787 30.331
H 22.778 15.988 30.034
C 21.246 15.523 28.85 
H 21.562 14.5   28.556
H 20.202 15.49  28.839
H 21.583 16.271 28.116
C 21.905 14.449 31.079
H 22.545 14.622 31.893
H 22.383 13.743 30.447
C 20.638 13.896 31.57 
H 19.805 14.611 31.562
H 20.811 13.538 32.567
C 20.258 12.58  30.824
H 20.703 11.758 31.375
H 20.667 12.66  29.833
C 18.701 12.436 30.463
H 18.474 13.365 29.917
C 17.745 12.246 31.765
H 17.89  11.221 32.118
H 18.074 12.893 32.593
H 16.661 12.284 31.561
C 18.416 11.285 29.488
H 17.35  11.201 29.377
H 18.869 10.347 29.929
C 19.018 11.392 28.02 
H 19.791 10.615 27.938
H 19.372 12.43  27.96 
C 18.006 11.117 26.989
H 17.167 10.484 27.368
H 18.523 10.572 26.182
C 17.476 12.336 26.157
H 18.278 12.852 25.764
C 16.69  13.233 27.145
H 15.742 12.727 27.318
H 17.159 13.353 28.035
H 16.533 14.145 26.579
C 16.503 11.739 25.019
H 17.087 11.023 24.416
H 15.502 11.317 25.359
H 16.146 12.6   24.529
