137

Mg 22.827 17.631 26.813
C 24.393 18.356 23.884
C 24.609 19.971 28.419
H 25.272 20.741 28.945
C 20.868 17.113 29.637
H 20.235 16.961 30.474
C 20.897 15.365 25.191
H 20.357 14.566 24.71 
N 24.34  19.074 26.221
C 24.781 19.212 24.944
C 25.691 20.407 24.848
H 26.562 20.128 24.254
C 26.102 20.629 26.327
H 25.911 21.677 26.597
C 24.959 19.917 27.092
C 27.551 20.225 26.727
H 27.701 19.169 26.455
H 28.192 21.007 26.255
H 27.603 20.26  27.84 
C 25.022 21.631 24.149
H 24.358 21.803 24.985
H 24.42  21.324 23.206
C 25.963 22.879 23.755
H 26.997 22.601 23.575
H 25.643 23.279 22.759
C 26.001 24.079 24.642
O 26.989 24.709 25.037
O 24.701 24.499 24.685
N 22.767 18.357 28.703
C 23.608 19.337 29.165
C 23.411 19.529 30.562
C 22.289 18.75  30.921
C 21.922 18.042 29.741
C 24.432 20.185 31.452
H 25.246 20.571 30.841
H 23.923 21.031 31.869
H 24.746 19.497 32.336
C 21.734 18.476 32.267
H 21.336 17.48  32.245
C 21.836 19.267 33.39 
H 22.346 20.254 33.368
H 21.484 18.969 34.373
N 21.114 16.461 27.325
C 20.466 16.377 28.48 
C 19.488 15.356 28.408
C 19.456 14.932 27.129
C 20.499 15.629 26.481
C 18.51  15.003 29.531
H 18.539 15.661 30.358
H 17.531 15.058 29.157
H 18.768 14.107 30.039
C 18.553 13.801 26.585
H 19.189 12.896 26.433
H 17.819 13.481 27.337
C 17.721 14.129 25.323
H 18.253 14.615 24.561
H 17.206 13.236 24.971
H 16.981 14.797 25.74 
N 22.64  16.959 24.958
C 21.869 15.927 24.422
C 22.265 15.58  23.142
C 23.221 16.594 22.826
C 23.35  17.397 23.951
C 21.786 14.469 22.316
H 22.591 13.93  21.739
H 21.441 13.634 22.907
H 21.032 14.844 21.636
C 24.089 17.107 21.801
O 24.257 16.701 20.66 
C 24.792 18.373 22.403
H 24.469 19.242 21.893
C 26.205 18.206 22.104
O 26.96  17.423 22.704
O 26.668 19.063 21.101
C 28.107 19.084 20.835
H 28.503 19.608 19.966
H 28.592 19.175 21.778
H 28.414 18.063 20.557
C 24.574 25.909 25.076
H 25.038 26.547 24.394
H 25.012 26.05  26.043
C 23.083 26.126 25.004
H 22.567 25.584 25.807
C 22.409 27.081 24.292
C 23.006 27.99  23.276
H 22.597 27.717 22.28 
H 22.853 29.019 23.634
H 24.07  27.799 23.119
C 20.95  27.163 24.511
H 20.446 26.328 24.094
H 20.65  28.081 23.992
C 20.46  27.296 25.983
H 21.366 27.156 26.611
H 19.754 26.442 26.148
C 19.554 28.516 26.315
H 19.037 28.131 27.251
H 18.739 28.568 25.514
C 20.212 29.91  26.435
H 20.486 30.235 25.406
C 21.549 29.941 27.188
H 21.917 30.962 27.164
H 21.47  29.547 28.214
H 22.197 29.419 26.547
C 19.205 31.016 26.908
H 19.757 31.924 27.233
H 18.783 30.587 27.886
C 18.08  31.347 25.921
H 17.149 30.845 26.262
H 18.337 30.821 24.968
C 17.923 32.843 25.614
H 17.962 32.968 24.517
H 18.719 33.398 25.98 
C 16.632 33.439 26.263
H 15.883 32.887 25.638
C 16.582 34.971 25.882
H 17.539 35.388 25.895
H 16.25  35.203 24.931
H 15.843 35.509 26.541
C 16.632 33.206 27.839
H 17.53  33.671 28.233
H 16.607 32.087 27.995
C 15.48  33.906 28.548
H 14.788 34.245 27.783
H 15.893 34.704 29.098
C 14.533 33.013 29.427
H 14.725 31.989 29.235
H 13.444 33.165 29.317
C 14.64  33.215 31.   
H 15.668 33.395 31.264
C 14.216 31.896 31.708
H 14.79  31.119 31.195
H 14.527 32.052 32.815
H 13.098 31.859 31.732
C 13.96  34.489 31.574
H 14.129 35.434 31.07 
H 12.855 34.293 31.452
H 14.27  34.762 32.64 
