137

Mg 33.614 37.104 33.939
C 30.486 35.718 33.438
C 35.041 34.099 33.23 
H 35.435 33.168 32.89 
C 36.632 38.456 34.322
H 37.592 38.993 34.211
C 32.145 39.969 34.87 
H 31.684 40.859 35.253
N 32.879 35.156 33.529
C 31.544 34.832 33.232
C 31.393 33.361 32.783
H 30.744 32.853 33.439
C 32.781 32.821 33.201
H 33.297 32.21  32.523
C 33.64  34.074 33.363
C 32.87  31.947 34.48 
H 32.414 32.481 35.34 
H 32.216 31.099 34.218
H 33.857 31.576 34.699
C 30.908 33.19  31.383
H 31.692 33.576 30.751
H 30.028 33.756 31.065
C 30.666 31.711 31.022
H 31.552 31.173 30.787
H 30.196 31.29  31.876
C 29.734 31.277 29.95 
O 30.147 30.681 28.954
O 28.402 31.5   30.247
N 35.508 36.406 33.684
C 35.937 35.149 33.442
C 37.422 35.058 33.431
C 37.851 36.337 33.729
C 36.62  37.169 33.859
C 38.24  33.777 33.355
H 38.244 33.375 34.345
H 37.625 33.122 32.749
H 39.25  33.824 32.906
C 39.146 36.843 34.022
H 39.352 37.854 33.766
C 40.057 36.189 34.773
H 39.887 35.098 35.047
H 40.965 36.706 35.099
N 34.285 38.914 34.602
C 35.603 39.246 34.697
C 35.682 40.702 35.143
C 34.34  41.158 35.234
C 33.494 39.939 34.825
C 37.034 41.469 35.372
H 37.41  41.977 34.459
H 36.876 42.198 36.2  
H 37.869 40.882 35.751
C 33.891 42.53  35.549
H 33.103 42.485 36.26 
H 34.777 43.09  35.901
C 33.403 43.289 34.304
H 32.901 44.232 34.467
H 34.332 43.575 33.753
H 32.75  42.661 33.717
N 31.725 37.72  34.209
C 31.177 38.938 34.628
C 29.76  38.969 34.609
C 29.438 37.704 34.06 
C 30.656 36.996 33.943
C 28.87  40.115 35.162
H 28.931 40.988 34.571
H 27.858 39.69  35.153
H 29.323 40.293 36.157
C 28.405 36.839 33.76 
O 27.213 36.951 33.918
C 28.975 35.62  33.128
H 28.867 35.537 32.055
C 28.356 34.469 33.894
O 28.283 34.372 35.083
O 27.985 33.503 33.018
C 27.37  32.285 33.537
H 27.282 31.673 32.657
H 27.979 31.917 34.374
H 26.374 32.406 33.921
C 27.36  31.218 29.234
H 27.483 30.205 28.97 
H 27.541 31.681 28.273
C 26.019 31.279 29.77 
H 25.52  32.229 29.95 
C 25.282 30.243 30.092
C 25.495 28.768 29.894
H 25.303 28.562 28.874
H 26.57  28.593 30.029
H 24.899 28.238 30.564
C 23.937 30.566 30.749
H 23.878 31.648 31.098
H 24.007 29.906 31.597
C 22.667 30.357 29.898
H 22.993 30.221 28.853
H 22.078 31.291 29.876
C 21.785 29.122 30.29 
H 20.805 29.393 30.668
H 22.257 28.531 31.064
C 21.351 28.265 29.1  
H 22.168 27.84  28.544
C 20.389 28.957 28.134
H 20.224 28.288 27.311
H 19.445 29.162 28.645
H 20.836 29.754 27.646
C 20.735 26.941 29.648
H 21.52  26.452 30.222
H 20.448 26.293 28.838
C 19.493 26.982 30.592
H 18.789 26.297 30.234
H 19.125 28.029 30.398
C 19.757 26.451 32.044
H 20.758 26.775 32.321
H 19.711 25.306 32.035
C 18.652 26.995 32.986
H 17.714 26.713 32.513
C 18.746 28.541 33.233
H 18.408 29.107 32.37 
H 18.091 28.845 34.067
H 19.701 28.886 33.621
C 18.57  26.367 34.405
H 17.72  26.812 34.884
H 19.469 26.709 34.881
C 18.38  24.792 34.492
H 19.334 24.354 34.709
H 18.092 24.446 33.568
C 17.285 24.318 35.455
H 16.656 23.63  34.908
H 16.607 25.1   35.745
C 17.773 23.564 36.727
H 18.808 23.575 36.809
C 17.384 22.112 36.748
H 17.715 21.786 37.721
H 16.352 21.921 36.569
H 17.98  21.5   36.091
C 17.056 24.237 37.987
H 16.083 23.901 37.957
H 17.446 23.908 38.938
H 17.242 25.276 37.863
