137

Mg 20.926 16.956 26.096
C 23.507 17.086 23.754
C 22.949 18.743 28.195
H 23.538 19.339 28.899
C 18.501 16.759 28.394
H 17.63  16.66  29.038
C 19.297 14.676 24.191
H 18.742 13.907 23.661
N 22.954 17.897 25.976
C 23.765 17.846 24.866
C 24.946 18.807 25.102
H 25.992 18.41  24.878
C 24.785 19.32  26.563
H 24.654 20.412 26.591
C 23.489 18.642 26.95 
C 26.046 18.954 27.504
H 26.131 17.888 27.687
H 27.023 19.202 26.961
H 26.157 19.6   28.446
C 25.02  19.932 24.036
H 24.145 20.556 24.066
H 25.114 19.474 23.027
C 26.298 20.87  24.328
H 26.639 20.812 25.356
H 27.023 20.564 23.569
C 26.116 22.329 24.052
O 26.95  23.069 23.647
O 24.921 22.844 24.616
N 20.712 17.686 27.961
C 21.665 18.325 28.699
C 21.068 18.614 29.998
C 19.781 18.104 30.065
C 19.585 17.478 28.745
C 21.909 19.24  31.065
H 22.878 18.756 31.22 
H 22.061 20.301 30.823
H 21.402 19.196 32.071
C 18.81  17.977 31.243
H 18.052 17.214 31.13 
C 18.736 18.698 32.37 
H 19.422 19.523 32.705
H 17.922 18.501 33.106
N 19.158 15.939 26.269
C 18.295 16.057 27.273
C 17.072 15.279 27.051
C 17.344 14.705 25.818
C 18.643 15.147 25.354
C 15.847 14.977 27.993
H 16.041 14.059 28.551
H 15.713 15.737 28.742
H 14.913 15.009 27.395
C 16.51  13.686 25.18 
H 17.2   12.839 25.011
H 15.815 13.256 25.917
C 15.755 14.122 23.856
H 14.966 14.805 24.204
H 16.355 14.447 22.965
H 15.169 13.254 23.51 
N 21.284 16.038 24.39 
C 20.547 15.135 23.698
C 21.159 14.759 22.444
C 22.296 15.529 22.4  
C 22.389 16.259 23.61 
C 20.631 13.894 21.405
H 19.881 14.459 20.955
H 21.366 13.672 20.635
H 20.117 13.005 21.817
C 23.318 16.001 21.5  
O 23.508 15.782 20.299
C 24.207 16.939 22.399
H 24.371 17.901 21.903
C 25.496 16.263 22.488
O 25.759 15.387 23.282
O 26.501 16.766 21.686
C 27.777 15.976 21.652
H 27.501 14.949 21.453
H 28.419 16.203 20.852
H 28.211 16.059 22.607
C 24.756 24.305 24.448
H 24.608 24.626 23.465
H 25.656 24.714 24.667
C 23.595 24.712 25.293
H 22.676 24.403 24.847
C 23.602 25.352 26.54 
C 24.913 25.742 27.206
H 24.826 25.48  28.223
H 25.711 25.084 26.815
H 25.21  26.807 27.185
C 22.235 25.67  27.297
H 22.43  25.096 28.206
H 21.379 25.22  26.773
C 21.943 27.158 27.625
H 22.637 27.819 27.173
H 21.911 27.362 28.717
C 20.605 27.673 27.158
H 19.887 27.395 27.958
H 20.381 27.242 26.2  
C 20.605 29.293 27.01 
H 21.34  29.807 26.332
C 20.976 29.953 28.377
H 20.983 31.089 28.185
H 20.15  29.709 29.001
H 21.895 29.471 28.694
C 19.156 29.757 26.687
H 19.127 30.813 26.792
H 18.588 29.2   27.436
C 18.614 29.408 25.34 
H 17.599 28.933 25.605
H 19.263 28.751 24.781
C 18.222 30.628 24.453
H 18.581 30.361 23.448
H 18.79  31.457 24.737
C 16.754 31.14  24.364
H 16.273 30.214 23.966
C 16.602 32.32  23.293
H 17.241 33.154 23.622
H 16.981 32.075 22.262
H 15.564 32.697 23.197
C 16.251 31.612 25.78 
H 16.67  32.498 26.113
H 16.6   30.895 26.473
C 14.777 31.718 25.846
H 14.251 31.223 25.013
H 14.594 32.805 25.63 
C 14.158 31.323 27.169
H 14.883 31.138 27.933
H 13.543 30.424 27.137
C 13.329 32.349 27.914
H 13.756 33.329 27.878
C 12.992 31.953 29.356
H 13.831 31.976 30.046
H 12.284 32.691 29.696
H 12.474 31.038 29.389
C 12.009 32.603 27.174
H 12.17  32.767 26.111
H 11.465 31.66  27.255
H 11.474 33.447 27.596
