137

Mg 24.772 29.293 39.065
C 23.209 26.714 40.646
C 21.707 30.369 37.831
H 20.741 30.631 37.336
C 26.295 32.16  37.887
H 26.844 32.976 37.491
C 27.815 28.138 40.129
H 28.806 27.746 40.317
N 22.756 28.685 39.342
C 22.257 27.574 40.053
C 20.779 27.433 40.035
H 20.596 26.468 39.548
C 20.395 28.627 39.144
H 20.034 29.447 39.76 
C 21.699 29.336 38.75 
C 19.393 28.222 38.044
H 18.791 28.959 37.574
H 19.966 27.773 37.256
H 18.834 27.335 38.333
C 20.143 27.574 41.412
H 20.28  28.609 41.735
H 20.825 26.996 42.119
C 18.673 27.204 41.497
H 18.308 26.839 40.541
H 18.54  26.309 42.109
C 17.754 28.24  41.985
O 16.898 28.088 42.846
O 17.941 29.343 41.266
N 24.129 31.007 38.01 
C 22.831 31.202 37.574
C 22.777 32.483 36.855
C 24.1   33.007 36.73 
C 24.941 32.052 37.611
C 21.534 33.181 36.368
H 21.124 32.769 35.482
H 20.687 33.154 37.102
H 21.827 34.229 36.172
C 24.603 34.256 36.234
H 25.295 34.693 36.916
C 24.247 34.936 35.171
H 23.68  34.531 34.346
H 24.679 35.954 34.949
N 26.727 30.04  39.087
C 27.12  31.277 38.568
C 28.541 31.32  38.704
C 29.007 30.178 39.332
C 27.844 29.407 39.583
C 29.306 32.366 38.035
H 29.22  32.122 37.01 
H 28.779 33.337 38.196
H 30.318 32.465 38.363
C 30.468 29.807 39.664
H 30.697 28.837 39.195
H 31.116 30.514 39.165
C 30.742 29.868 41.222
H 29.926 29.523 41.791
H 31.685 29.294 41.595
H 30.882 30.891 41.55 
N 25.442 27.794 40.113
C 26.681 27.349 40.393
C 26.705 26.054 41.091
C 25.315 25.789 41.177
C 24.64  26.921 40.622
C 27.798 25.214 41.349
H 28.355 25.758 42.158
H 27.412 24.286 41.678
H 28.338 25.116 40.422
C 24.353 24.86  41.594
O 24.468 23.816 42.19 
C 22.967 25.484 41.358
H 22.429 25.554 42.351
C 22.42  24.38  40.591
O 22.79  24.006 39.483
O 21.126 24.059 41.077
C 20.503 23.007 40.298
H 21.124 22.144 40.106
H 19.566 22.564 40.743
H 20.189 23.549 39.368
C 17.223 30.546 41.652
H 17.311 30.692 42.72 
H 16.22  30.425 41.328
C 17.654 31.676 40.823
H 18.162 31.33  39.924
C 17.34  33.002 40.973
C 16.574 33.467 42.202
H 15.772 34.146 41.868
H 16.155 32.609 42.748
H 17.255 34.064 42.848
C 17.914 34.069 40.043
H 18.708 33.705 39.293
H 18.327 34.941 40.559
C 16.736 34.645 39.32 
H 16.553 35.644 39.57 
H 15.857 34.101 39.562
C 16.75  34.456 37.77 
H 15.915 33.853 37.562
H 17.731 33.986 37.385
C 16.576 35.796 37.033
H 15.7   36.26  37.336
C 16.186 35.617 35.561
H 17.093 35.873 34.892
H 15.975 34.543 35.321
H 15.41  36.269 35.281
C 17.639 36.815 37.226
H 17.383 37.434 38.074
H 17.544 37.472 36.354
C 19.13  36.361 37.35 
H 19.353 35.413 36.741
H 19.386 36.063 38.407
C 20.169 37.439 36.837
H 20.914 37.357 37.586
H 19.723 38.462 36.973
C 20.819 37.278 35.428
H 21.685 36.564 35.518
C 21.584 38.598 35.011
H 22.351 38.35  34.212
H 20.859 39.373 34.641
H 22.143 39.069 35.862
C 19.908 36.866 34.201
H 19.31  37.737 34.048
H 19.336 35.975 34.528
C 20.593 36.515 32.887
H 21.608 36.89  32.864
H 20.017 37.087 32.233
C 20.546 35.037 32.434
H 20.488 34.399 33.344
H 21.488 34.848 31.91 
C 19.327 34.616 31.562
H 19.289 35.032 30.536
C 17.917 34.941 32.131
H 17.743 36.012 32.148
H 17.293 34.493 31.418
H 17.781 34.596 33.108
C 19.394 33.066 31.279
H 18.441 32.649 30.989
H 20.199 32.845 30.509
H 19.567 32.545 32.212
