137

Mg 20.7   28.442 32.515
C 22.439 25.604 33.746
C 18.014 27.48  34.619
H 17.135 27.105 35.174
C 18.937 31.005 31.359
H 18.426 31.823 30.889
C 23.163 28.838 30.229
H 23.924 29.029 29.508
N 20.288 26.817 34.015
C 21.188 25.855 34.452
C 20.648 25.047 35.619
H 20.837 24.036 35.346
C 19.115 25.356 35.518
H 18.72  25.707 36.469
C 19.101 26.622 34.639
C 18.326 24.099 35.111
H 18.666 23.812 34.153
H 18.482 23.377 35.894
H 17.232 24.289 35.036
C 21.292 25.22  36.975
H 21.273 26.291 37.178
H 22.309 24.843 36.855
C 20.618 24.272 38.103
H 19.772 23.729 37.687
H 21.428 23.617 38.54 
C 20.067 24.994 39.262
O 20.303 24.782 40.446
O 19.121 25.97  38.857
N 18.924 29.259 33.037
C 17.92  28.715 33.916
C 16.777 29.551 33.973
C 17.033 30.604 33.102
C 18.372 30.344 32.457
C 15.638 29.333 34.884
H 15.327 28.308 34.878
H 16.152 29.646 35.859
H 14.729 29.941 34.729
C 16.412 31.912 32.886
H 16.485 32.314 31.884
C 15.609 32.603 33.796
H 15.45  32.306 34.825
H 15.149 33.595 33.524
N 20.983 29.694 31.055
C 20.145 30.697 30.799
C 20.74  31.495 29.648
C 21.9   30.807 29.324
C 22.075 29.707 30.219
C 20.162 32.778 29.055
H 20.639 33.62  29.532
H 20.381 32.875 28.044
H 19.033 32.821 29.119
C 23.01  31.322 28.364
H 23.266 30.467 27.818
H 22.607 32.014 27.636
C 24.181 31.9   29.131
H 24.906 32.267 28.453
H 23.854 32.761 29.707
H 24.586 31.08  29.689
N 22.424 27.356 31.937
C 23.327 27.664 31.018
C 24.409 26.757 31.089
C 24.13  25.817 32.19 
C 22.89  26.318 32.674
C 25.564 26.841 30.242
H 26.002 27.839 30.252
H 26.239 26.129 30.602
H 25.339 26.662 29.184
C 24.612 24.701 32.962
O 25.598 24.045 32.879
C 23.557 24.629 34.105
H 24.077 24.915 34.982
C 22.979 23.288 34.225
O 22.318 22.719 33.318
O 23.275 22.783 35.446
C 23.02  21.338 35.468
H 22.046 21.052 35.028
H 23.825 20.695 35.089
H 22.893 21.031 36.426
C 18.519 26.692 39.957
H 19.181 27.466 40.331
H 18.229 26.03  40.765
C 17.129 27.182 39.477
H 16.453 26.349 39.391
C 16.786 28.369 39.067
C 17.779 29.496 38.902
H 17.396 30.283 39.5  
H 18.732 29.195 39.234
H 17.75  29.794 37.841
C 15.324 28.73  38.821
H 14.874 27.803 39.122
H 15.227 28.668 37.712
C 14.627 29.943 39.518
H 15.322 30.281 40.276
H 13.776 29.718 40.13 
C 14.133 30.952 38.461
H 13.047 30.826 38.314
H 14.735 30.796 37.54 
C 14.428 32.411 38.766
H 15.433 32.385 39.088
C 13.483 32.85  39.905
H 12.487 33.086 39.464
H 13.492 32.1   40.695
H 13.904 33.772 40.36 
C 14.098 33.206 37.527
H 13.078 32.959 37.329
H 14.667 32.742 36.711
C 14.247 34.756 37.509
H 14.525 35.055 38.555
H 13.258 35.167 37.266
C 15.121 35.327 36.39 
H 15.462 34.624 35.644
H 16.017 35.622 36.92 
C 14.398 36.405 35.512
H 13.893 37.116 36.222
C 13.315 35.785 34.585
H 12.668 36.516 34.001
H 13.787 35.219 33.841
H 12.667 35.095 35.12 
C 15.405 37.218 34.586
H 14.718 37.69  33.829
H 15.95  36.449 34.074
C 16.282 38.201 35.327
H 17.261 37.752 35.409
H 15.878 38.279 36.315
C 16.257 39.647 34.721
H 15.748 40.19  35.473
H 15.783 39.561 33.745
C 17.532 40.461 34.491
H 18.071 40.51  35.486
C 17.163 41.862 33.965
H 16.5   42.41  34.644
H 18.069 42.495 33.806
H 16.608 41.681 32.98 
C 18.443 39.736 33.542
H 19.297 40.373 33.366
H 18.9   38.869 34.032
H 18.019 39.466 32.576
