137

Mg 35.191 29.627 34.188
C 31.983 28.605 34.086
C 35.809 28.047 31.153
H 36.059 27.446 30.259
C 38.247 31.046 34.147
H 39.18  31.483 34.159
C 34.67  30.866 37.453
H 34.512 31.2   38.468
N 34.057 28.527 32.818
C 32.714 28.222 32.935
C 32.154 27.381 31.748
H 31.775 26.405 32.103
C 33.399 27.139 30.923
H 33.282 27.554 29.889
C 34.539 27.946 31.642
C 33.864 25.67  30.714
H 34.845 25.682 30.221
H 33.951 25.084 31.629
H 33.234 25.067 30.106
C 31.022 28.119 31.005
H 31.464 28.978 30.534
H 30.301 28.396 31.752
C 30.386 27.245 29.923
H 30.674 27.63  28.913
H 30.691 26.209 30.011
C 28.901 27.107 30.019
O 28.334 26.113 30.481
O 28.167 28.129 29.499
N 36.761 29.595 32.868
C 36.815 28.89  31.669
C 38.134 29.029 31.101
C 38.864 29.938 31.878
C 37.986 30.251 33.   
C 38.621 28.312 29.896
H 39.649 28.615 29.798
H 38.751 27.26  30.093
H 38.042 28.447 29.036
C 40.304 30.438 31.795
H 40.657 30.663 30.756
C 41.182 30.476 32.838
H 40.953 30.022 33.84 
H 42.165 30.873 32.658
N 36.271 30.79  35.593
C 37.466 31.274 35.318
C 37.921 31.992 36.474
C 36.918 31.959 37.491
C 35.887 31.175 36.845
C 39.275 32.614 36.64 
H 39.811 32.917 35.773
H 39.217 33.498 37.264
H 39.924 31.93  37.198
C 36.965 32.433 38.954
H 36.751 31.554 39.61 
H 37.924 32.751 39.185
C 36.01  33.521 39.38 
H 36.453 34.528 39.041
H 34.955 33.344 39.058
H 36.084 33.524 40.49 
N 33.729 29.63  35.529
C 33.593 30.223 36.816
C 32.277 29.949 37.374
C 31.595 29.338 36.332
C 32.524 29.149 35.253
C 31.681 30.531 38.636
H 32.023 29.865 39.379
H 31.963 31.586 38.872
H 30.614 30.468 38.453
C 30.294 28.927 35.851
O 29.215 28.885 36.36 
C 30.471 28.349 34.398
H 29.767 28.774 33.67 
C 30.133 26.9   34.608
O 30.703 26.107 35.367
O 29.229 26.482 33.752
C 29.062 25.039 33.516
H 28.181 24.925 32.927
H 29.947 24.628 32.984
H 28.973 24.509 34.451
C 26.751 27.81  29.21 
H 26.297 27.675 30.127
H 26.65  26.914 28.655
C 26.269 28.895 28.24 
H 26.945 29.08  27.457
C 25.206 29.696 28.484
C 24.128 29.432 29.567
H 23.183 29.69  29.244
H 24.277 28.453 29.911
H 24.355 30.068 30.386
C 24.79  30.671 27.473
H 25.691 31.011 27.021
H 24.293 31.542 27.993
C 23.983 29.973 26.295
H 24.014 28.893 26.394
H 24.489 30.309 25.35 
C 22.588 30.583 25.994
H 22.53  31.247 25.118
H 22.385 31.145 26.924
C 21.267 29.707 25.934
H 21.374 29.149 26.891
C 21.226 28.679 24.779
H 22.194 28.17  24.687
H 20.351 28.059 25.012
H 21.073 29.068 23.804
C 19.926 30.532 25.987
H 19.155 29.855 25.509
H 20.084 31.433 25.366
C 19.391 30.908 27.422
H 19.698 30.163 28.228
H 18.309 30.952 27.439
C 19.846 32.309 27.915
H 18.96  32.873 27.856
H 20.577 32.725 27.185
C 20.377 32.411 29.376
H 21.363 31.917 29.519
C 19.479 31.722 30.446
H 19.596 30.675 30.34 
H 19.778 31.959 31.472
H 18.467 32.023 30.312
C 20.469 33.924 29.591
H 20.524 33.968 30.669
H 19.523 34.467 29.379
C 21.772 34.681 29.055
H 21.544 35.283 28.154
H 22.489 33.881 28.739
C 22.532 35.524 30.103
H 22.015 35.416 31.117
H 22.319 36.537 29.785
C 24.108 35.421 30.168
H 24.616 35.599 29.198
C 24.55  34.05  30.695
H 25.644 33.931 30.628
H 24.407 34.    31.734
H 24.168 33.221 30.114
C 24.601 36.468 31.209
H 25.689 36.46  31.34 
H 24.504 37.456 30.755
H 24.125 36.399 32.194
