137

Mg 23.214 31.353 37.07 
C 22.091 28.476 38.714
C 20.06  31.518 35.587
H 19.101 31.541 35.099
C 24.066 34.383 35.804
H 24.335 35.35  35.437
C 26.307 31.004 38.582
H 27.355 30.978 38.93 
N 21.302 30.237 37.201
C 21.113 29.07  37.933
C 19.692 28.442 37.791
H 19.801 27.433 37.389
C 19.118 29.339 36.633
H 18.208 29.91  36.9  
C 20.208 30.435 36.413
C 18.71  28.49  35.461
H 18.252 29.245 34.745
H 19.504 27.975 34.96 
H 17.895 27.801 35.578
C 18.866 28.479 39.156
H 18.762 29.539 39.473
H 19.482 28.004 39.979
C 17.464 27.86  39.198
H 17.145 27.42  38.307
H 17.493 27.147 40.033
C 16.311 28.798 39.449
O 15.598 28.856 40.46 
O 16.1   29.673 38.418
N 22.232 32.672 35.818
C 20.976 32.599 35.381
C 20.604 33.903 34.737
C 21.756 34.685 34.676
C 22.777 33.958 35.466
C 19.203 34.216 34.134
H 19.236 35.302 34.033
H 19.076 33.868 33.089
H 18.413 33.984 34.818
C 21.956 36.    34.025
H 22.691 36.617 34.395
C 21.42  36.422 32.833
H 20.583 35.902 32.266
H 21.72  37.349 32.371
N 24.894 32.485 37.196
C 25.023 33.719 36.637
C 26.388 34.126 36.823
C 26.995 33.19  37.739
C 26.024 32.192 37.892
C 26.999 35.477 36.483
H 28.038 35.649 36.779
H 27.027 35.588 35.392
H 26.443 36.222 37.01 
C 28.321 33.273 38.434
H 28.919 32.332 38.487
H 29.029 33.993 37.953
C 28.065 33.738 39.913
H 27.377 33.221 40.582
H 29.081 33.661 40.282
H 27.809 34.811 39.954
N 24.037 30.076 38.373
C 25.261 30.012 38.945
C 25.345 28.896 39.846
C 24.154 28.307 39.829
C 23.351 29.025 38.9  
C 26.516 28.521 40.772
H 26.255 28.03  41.713
H 27.192 27.899 40.12 
H 27.142 29.336 41.021
C 23.345 27.193 40.357
O 23.67  26.288 41.118
C 21.999 27.278 39.634
H 21.233 27.41  40.387
C 22.03  25.991 38.921
O 22.77  25.594 38.055
O 20.855 25.366 39.173
C 20.448 24.29  38.347
H 21.32  23.616 38.37 
H 19.593 23.742 38.733
H 20.275 24.637 37.313
C 15.103 30.752 38.47 
H 15.381 31.49  39.241
H 14.193 30.276 38.811
C 15.036 31.457 37.137
H 14.498 30.875 36.341
C 15.375 32.686 36.74 
C 16.245 33.615 37.487
H 15.72  34.479 37.746
H 16.634 33.102 38.392
H 17.118 33.847 36.912
C 15.174 33.045 35.268
H 14.834 32.092 34.872
H 16.149 33.164 34.828
C 14.197 34.188 34.934
H 13.846 34.646 35.849
H 13.302 33.728 34.43 
C 14.678 35.352 34.017
H 14.345 35.164 33.026
H 15.745 35.381 33.944
C 14.324 36.761 34.457
H 13.245 36.772 34.653
C 14.573 37.639 33.256
H 15.642 37.679 33.067
H 14.103 37.217 32.4  
H 14.186 38.633 33.353
C 14.871 37.315 35.738
H 14.57  36.815 36.611
H 14.284 38.26  35.881
C 16.37  37.388 35.837
H 16.807 37.179 34.828
H 16.83  36.678 36.504
C 16.872 38.802 36.325
H 17.511 38.796 37.211
H 15.984 39.317 36.761
C 17.677 39.572 35.218
H 17.276 39.285 34.274
C 19.059 38.982 35.294
H 19.709 39.271 34.459
H 19.604 39.275 36.202
H 18.987 37.921 35.187
C 17.712 41.134 35.535
H 18.142 41.21  36.482
H 16.734 41.443 35.696
C 18.313 42.071 34.407
H 17.373 42.483 33.87 
H 18.899 41.329 33.778
C 19.169 43.191 34.979
H 20.021 42.739 35.461
H 18.728 43.775 35.811
C 19.772 44.161 33.945
H 18.883 44.68  33.459
C 20.642 43.34  32.931
H 20.161 43.081 31.968
H 21.491 43.975 32.593
H 21.047 42.433 33.416
C 20.67  45.304 34.682
H 21.367 45.753 33.986
H 20.078 45.997 35.241
H 21.294 44.705 35.45 
