137

Mg 21.887 17.283 25.875
C 24.201 16.999 23.329
C 23.816 19.654 27.335
H 24.456 20.424 27.677
C 19.29  18.248 27.728
H 18.363 18.397 28.341
C 19.898 15.038 24.157
H 19.391 14.245 23.598
N 23.696 18.244 25.318
C 24.504 17.978 24.294
C 25.605 19.018 24.171
H 26.573 18.632 24.003
C 25.617 19.553 25.656
H 25.656 20.621 25.657
C 24.312 19.082 26.226
C 26.844 19.043 26.486
H 26.742 18.051 26.792
H 27.768 19.269 25.968
H 26.701 19.761 27.341
C 25.119 20.024 23.092
H 24.283 20.571 23.543
H 24.777 19.523 22.204
C 26.215 21.011 22.683
H 27.229 20.704 22.812
H 25.993 21.055 21.681
C 26.089 22.426 23.265
O 26.254 22.745 24.47 
O 25.995 23.35  22.296
N 21.667 18.588 27.346
C 22.56  19.478 27.843
C 21.938 20.241 28.944
C 20.64  19.901 29.037
C 20.502 18.85  28.002
C 22.677 21.21  29.784
H 21.936 21.934 30.074
H 23.022 20.74  30.701
H 23.471 21.749 29.358
C 19.455 20.484 29.772
H 18.493 20.765 29.321
C 19.482 20.613 31.118
H 20.315 20.302 31.639
H 18.683 21.146 31.68 
N 19.966 16.596 26.033
C 19.063 17.159 26.86 
C 17.739 16.487 26.616
C 17.975 15.497 25.711
C 19.29  15.659 25.278
C 16.462 16.916 27.239
H 15.576 16.298 26.977
H 16.627 16.903 28.369
H 16.379 17.915 26.963
C 16.952 14.638 25.082
H 17.475 13.672 24.838
H 16.263 14.345 25.868
C 16.343 15.271 23.904
H 17.139 15.625 23.272
H 15.578 14.598 23.454
H 15.824 16.175 24.285
N 22.062 16.11  24.154
C 21.164 15.185 23.618
C 21.762 14.609 22.421
C 22.97  15.286 22.214
C 23.052 16.192 23.308
C 21.134 13.679 21.481
H 21.796 13.687 20.567
H 21.08  12.627 21.796
H 20.135 13.975 21.077
C 24.08  15.462 21.351
O 24.432 14.934 20.273
C 25.004 16.511 22.144
H 25.275 17.349 21.491
C 26.293 15.661 22.442
O 26.325 14.4   22.539
O 27.486 16.323 22.48 
C 28.648 15.397 22.786
H 29.577 15.994 22.835
H 28.507 14.894 23.766
H 28.794 14.681 22.017
C 26.141 24.766 22.725
H 26.273 25.404 21.876
H 26.982 24.947 23.425
C 24.851 25.219 23.464
H 23.997 25.025 22.825
C 24.58  25.672 24.683
C 25.582 25.681 25.852
H 25.295 26.306 26.635
H 25.692 24.746 26.311
H 26.568 25.994 25.466
C 23.154 26.087 25.013
H 22.969 25.622 25.991
H 22.474 25.761 24.22 
C 22.987 27.648 25.148
H 23.839 28.024 24.623
H 23.122 28.092 26.137
C 21.705 28.165 24.479
H 20.921 27.581 24.945
H 21.844 27.874 23.413
C 21.365 29.719 24.483
H 22.074 30.389 24.017
C 21.454 30.229 25.95 
H 21.119 31.288 26.111
H 20.839 29.586 26.608
H 22.49  30.118 26.415
C 19.962 30.091 23.929
H 19.621 31.068 24.291
H 19.227 29.397 24.335
C 19.975 29.968 22.384
H 19.095 29.363 22.143
H 20.846 29.46  21.95 
C 19.89  31.419 21.766
H 20.429 31.448 20.84 
H 20.32  32.11  22.434
C 18.509 31.952 21.373
H 18.023 31.275 20.705
C 18.657 33.335 20.714
H 17.647 33.727 20.489
H 19.215 34.113 21.308
H 19.24  33.218 19.84 
C 17.583 32.039 22.564
H 17.968 32.763 23.298
H 17.681 31.108 23.1  
C 16.045 32.083 22.329
H 15.557 31.135 22.461
H 15.838 32.323 21.267
C 15.324 33.182 23.259
H 14.914 33.949 22.602
H 15.986 33.541 24.02 
C 14.152 32.666 24.08 
H 13.768 31.857 23.48 
C 13.089 33.711 24.356
H 12.53  33.962 23.413
H 12.373 33.341 25.048
H 13.528 34.623 24.737
C 14.568 32.134 25.412
H 13.722 31.918 25.989
H 15.166 31.218 25.358
H 15.103 32.881 26.   
