137

Mg 28.983 30.318 33.891
C 28.568 29.551 37.269
C 25.93  28.903 33.282
H 25.005 28.44  33.131
C 29.184 31.49  30.748
H 29.423 31.748 29.693
C 31.904 32.113 34.702
H 32.834 32.587 34.915
N 27.504 29.357 35.185
C 27.535 29.06  36.533
C 26.263 28.266 36.993
H 26.684 27.305 37.382
C 25.52  27.957 35.644
H 24.606 28.533 35.721
C 26.353 28.762 34.624
C 25.16  26.449 35.361
H 24.508 26.386 34.546
H 26.082 25.889 35.164
H 24.635 25.982 36.154
C 25.561 29.019 38.112
H 24.976 29.847 37.646
H 26.14  29.661 38.708
C 24.612 28.186 38.95 
H 24.921 27.15  38.705
H 24.719 28.318 39.986
C 23.16 28.48 38.62
O 22.477 29.157 39.348
O 22.792 27.911 37.431
N 27.739 30.299 32.291
C 26.53  29.636 32.194
C 26.181 29.648 30.793
C 27.053 30.391 30.018
C 28.05  30.813 31.013
C 25.036 28.855 30.303
H 24.645 29.217 29.373
H 25.335 27.817 30.232
H 24.282 28.962 31.073
C 27.154 30.663 28.571
H 27.778 31.564 28.327
C 26.459 30.004 27.594
H 25.926 29.05  27.752
H 26.613 30.34  26.531
N 30.419 31.412 32.888
C 30.245 31.823 31.614
C 31.346 32.665 31.16 
C 32.118 32.91  32.274
C 31.518 32.138 33.341
C 31.573 33.152 29.765
H 32.454 33.724 29.608
H 31.757 32.226 29.155
H 30.804 33.718 29.243
C 33.301 33.875 32.368
H 34.105 33.355 32.825
H 33.679 34.12  31.418
C 32.984 35.192 33.071
H 32.27  35.765 32.516
H 32.544 35.032 34.06 
H 33.901 35.782 33.   
N 30.122 30.573 35.59 
C 31.253 31.453 35.819
C 31.603 31.496 37.217
C 30.646 30.671 37.78 
C 29.691 30.263 36.835
C 32.858 32.163 37.856
H 33.689 32.019 37.219
H 32.796 33.188 38.128
H 32.96  31.583 38.798
C 30.202 30.012 39.013
O 30.65  30.109 40.119
C 28.864 29.299 38.714
H 28.149 29.638 39.422
C 29.201 27.847 39.089
O 30.061 27.212 38.521
O 28.364 27.375 40.104
C 28.655 25.996 40.632
H 29.454 25.955 41.33 
H 27.79  25.644 41.249
H 28.909 25.313 39.923
C 21.356 28.056 37.123
H 21.233 29.124 37.073
H 20.698 27.71  37.927
C 21.058 27.421 35.737
H 21.323 26.413 35.662
C 20.476 27.98  34.606
C 20.384 29.435 34.315
H 20.545 29.666 33.283
H 19.394 29.776 34.721
H 21.035 30.015 34.921
C 20.216 27.145 33.365
H 20.252 26.11  33.763
H 21.032 27.328 32.581
C 18.803 27.316 32.835
H 18.366 28.109 33.425
H 18.209 26.512 33.251
C 18.747 27.591 31.283
H 19.715 27.772 30.838
H 18.381 28.561 31.219
C 17.828 26.692 30.391
H 17.925 25.654 30.692
C 18.069 27.064 28.905
H 19.014 26.633 28.633
H 17.173 26.698 28.362
H 18.297 28.182 28.799
C 16.347 27.018 30.742
H 16.136 26.763 31.755
H 15.722 26.426 30.097
C 15.926 28.499 30.533
H 16.662 29.098 30.043
H 15.861 28.867 31.52 
C 14.626 28.82  29.906
H 13.769 28.586 30.524
H 14.699 28.072 29.107
C 14.419 30.288 29.382
H 15.482 30.561 29.155
C 13.975 31.226 30.576
H 12.947 30.888 30.957
H 14.64  31.097 31.459
H 14.082 32.276 30.309
C 13.465 30.22  28.129
H 12.497 29.897 28.305
H 13.827 29.422 27.42 
C 13.435 31.452 27.161
H 13.668 31.112 26.132
H 14.259 32.099 27.548
C 12.113 32.249 27.202
H 11.343 31.843 27.894
H 11.674 32.112 26.208
C 12.043 33.795 27.326
H 12.624 34.003 28.291
C 10.662 34.226 27.43 
H 10.21  33.739 28.294
H 10.656 35.288 27.49 
H 10.055 33.809 26.647
C 12.639 34.558 26.118
H 12.74  35.627 26.462
H 13.549 34.033 25.883
H 11.95  34.342 25.315
