137

Mg 24.245 31.801 30.259
C 23.139 28.756 31.514
C 20.981 32.882 29.977
H 19.897 33.097 29.984
C 25.248 35.001 29.334
H 25.549 35.974 28.919
C 27.628 30.889 30.67 
H 28.682 30.458 30.678
N 22.286 30.846 30.721
C 22.07  29.597 31.232
C 20.619 29.408 31.381
H 20.364 28.471 30.821
C 19.902 30.631 30.686
H 19.228 31.242 31.305
C 21.075 31.485 30.367
C 19.096 30.204 29.453
H 18.982 31.084 28.793
H 19.674 29.468 28.847
H 18.198 29.73  29.707
C 20.29  29.391 32.87 
H 20.384 30.417 33.242
H 21.025 28.743 33.34 
C 18.878 28.842 33.187
H 18.415 28.778 32.172
H 18.842 27.861 33.61 
C 18.001 29.65  34.133
O 18.099 29.575 35.343
O 17.159 30.564 33.491
N 23.216 33.644 29.883
C 21.881 33.875 29.716
C 21.587 35.287 29.452
C 22.843 35.903 29.449
C 23.862 34.856 29.551
C 20.249 35.866 29.316
H 20.239 36.562 28.522
H 19.562 35.114 29.031
H 19.986 36.33  30.265
C 23.205 37.336 29.287
H 24.221 37.682 29.275
C 22.349 38.405 29.396
H 21.285 38.18  29.669
H 22.608 39.499 29.373
N 26.086 32.738 29.947
C 26.26  34.022 29.49 
C 27.665 34.281 29.24 
C 28.333 33.18  29.754
C 27.346 32.226 30.158
C 28.222 35.648 28.808
H 27.804 36.021 27.889
H 28.03  36.405 29.597
H 29.282 35.628 28.661
C 29.861 33.043 29.9  
H 30.197 32.048 29.455
H 30.363 33.82  29.339
C 30.262 33.142 31.322
H 31.214 32.703 31.468
H 30.263 34.215 31.562
H 29.45  32.735 32.044
N 25.185 30.23  30.903
C 26.573 29.973 31.005
C 26.737 28.622 31.493
C 25.446 28.102 31.705
C 24.479 29.105 31.344
C 27.975 27.824 31.59 
H 28.891 28.481 31.692
H 27.869 27.227 32.506
H 28.001 27.157 30.717
C 24.703 26.95  32.12 
O 25.046 25.864 32.521
C 23.162 27.246 31.969
H 22.637 27.091 32.911
C 22.612 26.4   30.92 
O 22.96  26.502 29.745
O 21.56  25.658 31.329
C 20.96  24.977 30.165
H 21.671 24.248 29.653
H 20.131 24.384 30.482
H 20.65  25.598 29.334
C 16.302 31.353 34.31 
H 16.826 32.21  34.691
H 15.839 30.84  35.179
C 15.188 31.869 33.392
H 14.254 31.295 33.38 
C 15.301 32.762 32.403
C 16.603 33.423 32.032
H 16.392 34.492 31.962
H 17.36  33.207 32.727
H 16.95  33.147 31.038
C 14.14  32.876 31.413
H 13.848 31.857 31.12 
H 14.471 33.222 30.372
C 12.838 33.642 31.775
H 12.764 34.01  32.813
H 11.86  33.053 31.571
C 12.627 34.911 30.924
H 11.645 34.759 30.401
H 13.322 34.918 30.196
C 12.539 36.286 31.616
H 11.791 36.309 32.399
C 12.005 37.292 30.55 
H 11.988 38.27  30.993
H 12.609 37.366 29.637
H 11.01  37.037 30.21 
C 13.856 36.811 32.175
H 14.263 36.136 32.981
H 13.585 37.649 32.808
C 15.034 37.06  31.133
H 14.899 36.614 30.167
H 15.922 36.588 31.597
C 15.366 38.541 30.962
H 15.991 38.853 31.812
H 14.396 38.963 31.062
C 15.919 39.185 29.674
H 15.006 39.255 29.093
C 16.659 38.139 28.719
H 17.308 37.516 29.387
H 15.902 37.53  28.212
H 17.275 38.65  27.956
C 16.655 40.52  29.927
H 16.914 40.936 28.971
H 17.552 40.272 30.487
C 15.809 41.622 30.625
H 15.163 41.048 31.353
H 15.328 42.235 29.834
C 16.639 42.674 31.441
H 17.669 42.454 31.474
H 16.162 42.725 32.4  
C 16.5   44.124 30.916
H 15.511 44.317 30.658
C 17.352 44.514 29.608
H 18.389 44.519 29.89 
H 17.126 43.642 28.962
H 16.949 45.435 29.113
C 16.988 45.229 31.974
H 16.818 46.247 31.582
H 16.444 45.032 32.869
H 17.953 45.146 32.396
