137

Mg 29.305 28.701 32.34 
C 27.434 26.778 30.136
C 31.781 28.838 30.074
H 32.552 28.925 29.371
C 31.015 30.86  34.428
H 31.655 31.493 34.979
C 27.071 28.154 34.801
H 26.248 27.974 35.512
N 29.635 27.863 30.406
C 28.707 27.134 29.664
C 29.221 26.833 28.258
H 29.093 25.785 28.197
C 30.732 27.153 28.402
H 31.151 27.692 27.615
C 30.717 28.048 29.711
C 31.791 25.995 28.641
H 31.707 25.599 29.669
H 31.621 25.164 27.912
H 32.769 26.431 28.379
C 28.325 27.555 27.209
H 28.707 28.553 27.228
H 27.311 27.64  27.534
C 28.389 27.087 25.71 
H 28.957 27.777 25.182
H 28.851 26.123 25.722
C 27.099 26.825 25.056
O 26.808 27.303 24.006
O 26.324 25.855 25.78 
N 31.242 29.612 32.313
C 32.078 29.541 31.241
C 33.214 30.341 31.531
C 33.084 30.881 32.859
C 31.757 30.454 33.29 
C 34.366 30.47  30.528
H 35.038 29.675 30.741
H 33.966 30.609 29.577
H 35.01  31.384 30.633
C 34.001 31.696 33.705
H 33.544 32.212 34.507
C 35.315 31.833 33.397
H 35.87  31.427 32.534
H 35.934 32.423 34.121
N 29.04  29.498 34.236
C 29.833 30.346 34.907
C 29.277 30.606 36.217
C 28.257 29.633 36.388
C 28.068 29.087 35.103
C 29.762 31.658 37.169
H 29.082 31.779 38.019
H 30.791 31.458 37.571
H 29.679 32.633 36.74 
C 27.44  29.373 37.697
H 27.147 28.379 37.663
H 27.984 29.452 38.616
C 26.143 30.156 37.817
H 25.595 29.925 36.884
H 25.539 29.797 38.667
H 26.399 31.216 37.867
N 27.714 27.568 32.526
C 26.907 27.442 33.592
C 25.767 26.577 33.319
C 26.003 26.186 31.994
C 27.083 26.904 31.518
C 24.677 26.105 34.23 
H 25.1   25.317 34.853
H 24.305 26.869 34.9  
H 23.791 25.811 33.604
C 25.428 25.403 30.87 
O 24.45  24.694 30.725
C 26.288 25.779 29.629
H 25.545 26.232 28.983
C 26.764 24.473 29.205
O 27.814 23.919 29.517
O 25.776 23.946 28.432
C 25.848 22.505 28.174
H 26.766 22.198 27.752
H 25.702 21.889 29.059
H 25.006 22.294 27.524
C 24.885 25.907 25.305
H 24.815 25.745 24.204
H 24.466 26.86  25.525
C 24.119 24.927 26.1  
H 24.127 25.156 27.119
C 23.263 23.838 25.847
C 23.001 23.327 24.493
H 22.092 23.845 24.227
H 23.795 23.502 23.743
H 22.914 22.205 24.427
C 22.503 23.1   26.949
H 22.83  23.521 27.929
H 22.832 22.084 27.049
C 20.914 22.989 26.725
H 20.665 21.949 26.91 
H 20.651 23.139 25.692
C 20.036 23.77  27.684
H 20.561 24.777 27.627
H 20.19  23.242 28.662
C 18.477 23.906 27.433
H 18.408 24.434 26.466
C 17.723 24.785 28.519
H 18.069 24.426 29.488
H 18.172 25.76  28.383
H 16.57  24.796 28.379
C 17.841 22.512 27.279
H 18.321 21.959 26.464
H 16.842 22.603 26.843
C 17.704 21.753 28.565
H 16.669 21.812 28.926
H 18.337 22.176 29.334
C 17.814 20.236 28.431
H 18.667 19.928 27.803
H 16.922 19.976 27.852
C 17.868 19.396 29.741
H 18.831 19.535 30.228
C 17.939 17.867 29.418
H 18.016 17.335 30.336
H 16.966 17.547 28.982
H 18.773 17.619 28.844
C 16.805 19.739 30.818
H 15.848 19.312 30.432
H 16.653 20.793 30.906
C 17.036 19.343 32.251
H 17.067 20.257 32.916
H 18.051 18.969 32.295
C 16.127 18.201 32.778
H 16.75  17.485 33.246
H 15.502 17.723 31.983
C 14.949 18.601 33.737
H 15.449 19.059 34.61 
C 14.144 17.35  34.178
H 13.96  16.738 33.299
H 14.552 16.759 35.014
H 13.193 17.614 34.622
C 14.004 19.58  33.085
H 13.276 19.168 32.348
H 13.444 20.021 33.921
H 14.625 20.376 32.578
