137

Mg 30.065 31.501 34.838
C 30.521 27.986 34.699
C 28.119 31.014 31.946
H 27.466 30.87  31.045
C 29.371 34.68  35.026
H 28.988 35.678 35.205
C 32.17  31.484 37.497
H 32.994 31.552 38.249
N 29.421 29.759 33.557
C 29.633 28.428 33.766
C 28.862 27.57  32.74 
H 29.691 26.999 32.282
C 28.416 28.571 31.674
H 27.334 28.507 31.369
C 28.644 29.854 32.453
C 29.226 28.411 30.453
H 30.25  28.516 30.625
H 29.076 27.379 30.02 
H 28.784 29.205 29.832
C 27.726 26.626 33.349
H 27.119 27.288 34.031
H 28.336 25.887 33.947
C 26.854 25.805 32.373
H 25.816 26.004 32.614
H 27.084 26.062 31.373
C 27.018 24.275 32.421
O 28.018 23.659 32.754
O 25.868 23.65  32.017
N 28.939 32.667 33.686
C 28.242 32.303 32.459
C 27.541 33.494 32.001
C 27.846 34.493 32.944
C 28.792 33.989 33.952
C 26.697 33.691 30.804
H 27.274 33.437 29.968
H 25.774 33.073 30.942
H 26.284 34.739 30.753
C 27.441 35.978 32.913
H 26.95  36.382 33.822
C 27.8   36.865 31.973
H 28.295 36.587 31.005
H 27.467 37.937 32.062
N 30.671 32.903 36.05 
C 30.246 34.171 35.983
C 30.947 34.897 37.06 
C 31.715 33.979 37.796
C 31.529 32.663 37.102
C 30.678 36.381 37.299
H 31.099 36.737 38.217
H 31.019 36.981 36.453
H 29.631 36.48  37.336
C 32.707 34.232 38.965
H 33.76  33.977 38.623
H 32.688 35.291 39.133
C 32.407 33.551 40.278
H 33.207 33.835 40.927
H 31.403 33.93  40.667
H 32.405 32.453 40.157
N 31.112 30.088 35.885
C 31.93  30.219 36.91 
C 32.612 29.013 37.269
C 32.092 28.093 36.416
C 31.22  28.773 35.597
C 33.65  28.859 38.322
H 34.617 28.943 37.809
H 33.558 29.558 39.15 
H 33.735 27.806 38.609
C 32.139 26.715 36.027
O 32.825 25.781 36.45 
C 31.145 26.607 34.838
H 30.402 25.835 34.962
C 32.034 26.349 33.668
O 32.948 27.007 33.2  
O 31.464 25.331 32.944
C 32.206 24.825 31.789
H 32.225 25.694 31.104
H 33.186 24.442 32.121
H 31.671 24.062 31.288
C 25.874 22.215 32.18 
H 26.191 21.982 33.174
H 26.563 21.69  31.496
C 24.447 21.769 32.   
H 24.035 22.131 31.009
C 23.486 21.2   32.784
C 23.732 20.498 34.12 
H 22.773 20.105 34.626
H 24.339 19.673 33.895
H 24.372 21.022 34.791
C 22.096 21.059 32.111
H 22.015 21.958 31.551
H 21.315 20.976 32.895
C 22.045 19.921 31.119
H 22.961 19.289 31.178
H 22.057 20.243 30.01 
C 20.753 19.007 31.401
H 19.881 19.529 31.001
H 20.458 18.951 32.429
C 20.648 17.705 30.648
H 20.919 17.956 29.602
C 19.121 17.19  30.754
H 19.088 16.47  29.982
H 18.881 16.925 31.881
H 18.46  18.003 30.351
C 21.652 16.593 31.009
H 22.624 16.878 30.627
H 21.381 15.67  30.442
C 21.506 16.189 32.515
H 21.425 15.067 32.522
H 20.585 16.576 32.925
C 22.63  16.747 33.431
H 22.136 17.539 34.053
H 23.494 17.161 32.89 
C 23.151 15.725 34.477
H 22.353 14.973 34.756
C 23.552 16.382 35.759
H 23.825 15.612 36.451
H 24.35  17.126 35.604
H 22.627 16.684 36.252
C 24.398 14.851 33.988
H 24.589 14.134 34.78 
H 25.212 15.571 34.067
C 24.454 14.254 32.567
H 25.405 14.545 31.997
H 23.64  14.612 31.957
C 24.394 12.7   32.65 
H 23.664 12.387 33.369
H 25.366 12.406 33.156
C 24.219 11.983 31.282
H 24.611 12.545 30.355
C 22.722 11.666 30.963
H 22.483 10.991 31.711
H 22.148 12.581 31.081
H 22.699 11.278 29.949
C 25.167 10.737 31.31 
H 25.271 10.208 30.301
H 26.24  10.896 31.554
H 24.658 10.066 31.988
