137

Mg 37.36  31.694 34.847
C 34.6   30.048 33.494
C 39.19  30.708 32.014
H 39.925 30.415 31.218
C 40.029 33.003 36.284
H 40.858 33.535 36.748
C 35.416 32.247 37.634
H 34.671 32.532 38.353
N 36.98  30.387 33.049
C 35.74  29.927 32.676
C 35.747 29.273 31.279
H 35.574 28.17  31.481
C 37.234 29.501 30.83 
H 37.27  30.14  29.926
C 37.863 30.262 32.013
C 38.11  28.205 30.406
H 39.118 28.415 30.   
H 38.098 27.345 31.156
H 37.463 27.841 29.542
C 34.636 29.84  30.288
H 34.742 30.97  30.275
H 33.598 29.581 30.622
C 34.626 29.294 28.879
H 34.937 30.146 28.321
H 35.41  28.54  28.743
C 33.365 28.755 28.287
O 33.152 27.522 28.093
O 32.559 29.748 27.797
N 39.316 31.762 34.296
C 39.85  31.433 33.096
C 41.292 31.753 33.096
C 41.576 32.406 34.272
C 40.252 32.415 35.021
C 42.209 31.31  31.981
H 42.251 30.235 31.954
H 41.985 31.779 31.029
H 43.128 31.692 32.409
C 42.805 33.09  34.709
H 43.272 33.649 33.933
C 43.347 33.049 35.92 
H 42.847 32.324 36.64 
H 44.343 33.525 36.231
N 37.678 32.525 36.66 
C 38.887 32.958 37.101
C 38.781 33.471 38.488
C 37.416 33.371 38.783
C 36.766 32.738 37.65 
C 39.947 34.083 39.306
H 40.894 33.477 39.171
H 40.035 35.103 38.88 
H 39.719 33.976 40.466
C 36.83  33.851 40.091
H 36.216 33.09  40.562
H 37.611 34.3   40.612
C 35.849 34.988 39.888
H 35.601 35.503 40.85 
H 36.304 35.763 39.241
H 34.89  34.658 39.435
N 35.523 31.36  35.461
C 34.856 31.636 36.625
C 33.51  31.163 36.537
C 33.412 30.471 35.339
C 34.623 30.681 34.714
C 32.497 31.313 37.592
H 31.871 32.164 37.374
H 31.927 30.392 37.65 
H 32.938 31.464 38.547
C 32.489 29.721 34.579
O 31.253 29.505 34.709
C 33.222 29.414 33.302
H 32.52  29.883 32.653
C 33.227 27.92  33.252
O 33.712 27.189 34.054
O 32.521 27.462 32.175
C 32.741 25.988 31.931
H 33.792 25.672 31.979
H 32.125 25.588 32.729
H 32.302 25.831 30.992
C 31.459 29.268 27.024
H 30.88  28.447 27.422
H 31.91  29.003 26.046
C 30.604 30.537 26.736
H 31.139 31.291 26.182
C 29.391 30.954 27.149
C 28.485 30.146 28.115
H 27.685 29.744 27.468
H 29.088 29.344 28.567
H 27.999 30.834 28.82 
C 28.887 32.37  26.807
H 29.605 32.834 26.132
H 28.768 32.856 27.752
C 27.503 32.387 25.996
H 27.106 31.43  25.981
H 27.78  32.664 24.988
C 26.409 33.319 26.656
H 26.772 33.701 27.615
H 25.561 32.756 26.755
C 25.869 34.48  25.728
H 25.715 34.256 24.683
C 26.917 35.688 25.638
H 27.156 35.981 26.659
H 27.753 35.281 25.095
H 26.375 36.568 25.186
C 24.493 35.078 26.289
H 24.22  35.909 25.592
H 24.584 35.355 27.334
C 23.262 34.145 26.133
H 23.633 33.231 25.704
H 22.556 34.589 25.409
C 22.512 33.867 27.371
H 21.454 34.038 27.117
H 22.811 34.575 28.107
C 22.571 32.364 27.883
H 23.571 32.001 27.773
C 21.738 31.371 27.088
H 21.585 30.48  27.697
H 20.705 31.739 26.957
H 22.16  31.235 26.039
C 22.2   32.342 29.401
H 21.933 31.272 29.693
H 21.357 32.987 29.509
C 23.306 32.901 30.27 
H 23.123 33.885 30.693
H 24.208 33.053 29.642
C 23.547 31.99  31.463
H 22.723 31.323 31.683
H 23.68  32.608 32.321
C 24.657 30.979 31.468
H 25.535 31.57  31.406
C 24.811 30.151 30.29 
H 24.894 30.806 29.357
H 25.785 29.646 30.421
H 24.1   29.319 30.181
C 24.891 30.226 32.77 
H 24.039 29.597 32.861
H 25.785 29.671 32.743
H 24.931 30.897 33.618
