137

Mg 21.761 23.988 40.828
C 19.722 21.349 41.585
C 21.815 23.001 37.604
H 21.759 22.64  36.565
C 23.352 26.888 40.106
H 23.877 27.772 39.837
C 21.65  24.924 44.19 
H 21.659 25.26  45.215
N 20.855 22.369 39.765
C 20.054 21.359 40.235
C 19.616 20.442 39.173
H 19.967 19.494 39.404
C 20.41  20.922 37.915
H 19.719 21.256 37.15 
C 21.084 22.144 38.476
C 21.314 19.853 37.288
H 21.872 19.303 38.1  
H 20.647 19.225 36.695
H 22.059 20.352 36.703
C 18.126 20.376 38.891
H 17.817 21.423 38.82 
H 17.61  20.156 39.793
C 17.68  19.41  37.775
H 18.38  18.561 37.686
H 16.764 18.934 38.183
C 17.402 19.945 36.418
O 17.386 21.158 36.158
O 17.046 18.988 35.587
N 22.587 24.721 39.221
C 22.456 24.212 37.942
C 23.038 25.128 37.017
C 23.386 26.26  37.694
C 23.087 26.007 39.05 
C 23.119 24.967 35.514
H 22.839 25.902 34.987
H 24.048 24.491 35.14 
H 22.382 24.181 35.201
C 23.932 27.585 37.143
H 23.508 28.525 37.536
C 24.892 27.674 36.16 
H 25.286 26.766 35.666
H 25.316 28.632 35.774
N 22.274 25.676 41.909
C 22.979 26.776 41.429
C 23.292 27.656 42.545
C 22.895 27.021 43.718
C 22.28  25.801 43.281
C 23.896 28.988 42.311
H 24.796 28.997 41.723
H 23.129 29.605 41.819
H 24.065 29.506 43.181
C 23.086 27.549 45.133
H 23.423 26.801 45.799
H 23.876 28.297 45.265
C 21.811 28.062 45.872
H 20.958 27.774 45.284
H 21.865 27.662 46.908
H 21.772 29.168 45.931
N 20.852 23.427 42.467
C 20.926 23.8   43.775
C 20.112 22.998 44.618
C 19.654 21.948 43.803
C 20.083 22.358 42.462
C 19.881 23.165 46.062
H 18.886 23.661 46.09 
H 19.719 22.246 46.653
H 20.705 23.7   46.491
C 18.867 20.72  43.797
O 18.355 20.012 44.658
C 18.822 20.404 42.304
H 17.769 20.527 41.997
C 19.222 18.916 42.09 
O 20.29  18.383 42.36 
O 18.187 18.294 41.517
C 18.297 16.873 41.372
H 18.579 16.545 42.323
H 17.377 16.545 40.919
H 19.09  16.634 40.663
C 16.365 19.424 34.388
H 16.897 20.167 33.768
H 15.519 19.994 34.811
C 15.835 18.133 33.642
H 15.516 17.287 34.231
C 15.693 18.046 32.345
C 15.967 19.15  31.275
H 16.881 18.878 30.777
H 15.228 19.126 30.5  
H 16.061 20.153 31.754
C 15.008 16.806 31.806
H 15.459 15.96  32.43 
H 15.349 16.636 30.766
C 13.43  16.705 31.949
H 13.118 17.173 32.858
H 13.187 15.682 32.061
C 12.661 17.19  30.808
H 13.285 17.588 30.027
H 12.015 18.005 31.177
C 11.716 16.085 30.121
H 12.453 15.39  29.696
C 10.95  16.479 28.871
H 10.5   15.65  28.295
H 10.226 17.209 29.279
H 11.605 17.028 28.195
C 10.774 15.37  31.127
H 11.267 14.886 31.968
H 10.427 14.534 30.481
C  9.684 16.194 31.804
H  9.897 17.226 31.709
H  9.658 16.005 32.855
C  8.289 15.968 31.194
H  7.653 15.66  32.071
H  8.231 15.227 30.383
C  7.579 17.252 30.662
H  8.373 17.992 30.519
C  6.63  17.917 31.705
H  5.692 17.349 31.76 
H  7.135 17.919 32.606
H  6.451 19.006 31.475
C  6.918 17.014 29.228
H  6.008 16.481 29.389
H  7.581 16.302 28.644
C  6.511 18.312 28.471
H  6.833 19.22  28.941
H  5.441 18.334 28.471
C  7.102 18.467 27.083
H  7.451 17.455 26.747
H  8.093 19.008 27.181
C  6.132 18.946 25.941
H  5.336 18.22  25.966
C  6.987 18.968 24.652
H  7.79  19.706 24.761
H  7.325 17.955 24.533
H  6.454 19.193 23.774
C  5.63  20.36  26.225
H  5.02  20.897 25.472
H  5.107 20.231 27.156
H  6.493 20.981 26.529
