137

Mg 23.302 27.481 39.421
C 21.626 24.484 39.535
C 25.218 26.244 36.854
H 25.759 25.925 35.953
C 25.268 30.292 39.512
H 25.872 31.237 39.332
C 21.708 28.484 42.265
H 21.354 28.789 43.277
N 23.367 25.682 38.322
C 22.523 24.607 38.483
C 22.608 23.579 37.38 
H 22.743 22.577 37.836
C 23.869 24.07  36.614
H 23.561 24.318 35.581
C 24.243 25.406 37.302
C 25.047 23.008 36.566
H 25.739 22.943 37.402
H 24.775 22.032 36.275
H 25.644 23.253 35.752
C 21.232 23.535 36.649
H 20.96  24.471 36.279
H 20.41  23.099 37.261
C 21.241 22.67  35.324
H 22.134 22.054 35.228
H 20.419 21.977 35.416
C 21.059 23.407 33.994
O 21.582 24.439 33.704
O 20.134 22.725 33.246
N 24.954 28.137 38.36 
C 25.609 27.482 37.36 
C 26.772 28.257 36.855
C 26.815 29.403 37.69 
C 25.623 29.33  38.554
C 27.817 27.721 35.891
H 28.028 26.623 35.956
H 27.592 27.958 34.84 
H 28.77  28.166 36.065
C 27.76  30.513 37.656
H 27.87  31.204 38.535
C 28.636 30.713 36.676
H 28.525 30.245 35.685
H 29.276 31.619 36.783
N 23.363 29.131 40.562
C 24.207 30.181 40.426
C 23.832 31.319 41.358
C 22.981 30.746 42.264
C 22.634 29.406 41.736
C 24.457 32.799 41.329
H 24.147 33.291 40.39 
H 24.356 33.391 42.265
H 25.487 32.599 41.263
C 22.379 31.431 43.464
H 22.731 30.794 44.316
H 22.8   32.423 43.546
C 20.852 31.545 43.562
H 20.51  31.814 44.604
H 20.493 32.342 42.959
H 20.374 30.617 43.225
N 21.939 26.707 40.649
C 21.413 27.18  41.838
C 20.546 26.176 42.512
C 20.638 25.075 41.548
C 21.511 25.475 40.547
C 19.78  26.259 43.813
H 19.177 27.118 43.843
H 19.029 25.349 43.768
H 20.525 26.193 44.619
C 20.175 23.783 41.333
O 19.346 23.076 41.932
C 20.948 23.278 40.085
H 20.195 23.014 39.359
C 21.865 22.202 40.466
O 23.053 22.366 40.757
O 21.258 20.958 40.211
C 21.975 19.762 40.726
H 22.029 19.74  41.779
H 21.454 18.899 40.267
H 22.946 19.745 40.271
C 19.69  23.417 32.04 
H 20.49  23.96  31.542
H 18.898 24.107 32.348
C 19.16  22.374 31.086
H 19.86  21.789 30.622
C 17.843 22.151 30.77 
C 16.688 22.759 31.473
H 16.003 23.146 30.685
H 16.184 22.027 32.166
H 16.987 23.63  32.133
C 17.491 21.262 29.623
H 18.399 21.131 29.094
H 16.922 21.939 28.981
C 16.758 19.911 29.86 
H 16.833 19.638 30.902
H 17.37  19.236 29.29 
C 15.275 19.921 29.306
H 14.943 20.905 29.571
H 14.524 19.345 29.832
C 15.187 19.691 27.784
H 16.047 20.275 27.434
C 13.862 20.232 27.259
H 13.156 19.759 27.962
H 13.791 21.372 27.214
H 13.699 19.82  26.264
C 15.47  18.22  27.347
H 16.473 17.902 27.629
H 15.432 18.328 26.232
C 14.388 17.261 27.739
H 13.367 17.612 27.358
H 14.478 17.13  28.821
C 14.838 15.897 27.101
H 15.021 15.238 27.919
H 15.662 16.09  26.483
C 13.813 15.084 26.426
H 13.301 15.624 25.601
C 12.632 14.603 27.361
H 13.158 13.907 28.013
H 12.177 15.422 27.895
H 11.883 14.127 26.759
C 14.413 13.745 25.736
H 13.586 13.099 25.305
H 14.808 13.112 26.531
C 15.529 13.985 24.645
H 16.493 14.176 25.08 
H 15.406 14.927 24.162
C 15.528 12.975 23.522
H 14.866 13.186 22.737
H 15.196 12.017 23.905
C 16.928 12.815 22.981
H 17.324 13.814 23.043
C 16.904 12.291 21.53 
H 16.528 11.271 21.546
H 16.429 12.989 20.838
H 17.937 12.318 21.179
C 17.817 11.894 23.873
H 17.815 12.099 24.96 
H 17.49  10.891 23.836
H 18.782 11.947 23.37 
