137

Mg 30.381 33.396 34.711
C 28.541 32.81  37.504
C 27.484 33.344 32.829
H 26.558 33.429 32.316
C 32.096 34.141 31.964
H 32.755 34.223 31.146
C 33.137 33.586 36.768
H 33.981 33.861 37.473
N 28.264 33.118 35.146
C 27.723 32.96  36.342
C 26.217 32.877 36.327
H 25.982 31.889 36.782
C 25.914 32.715 34.792
H 25.234 33.522 34.502
C 27.301 33.028 34.173
C 25.36 31.27 34.63
H 25.217 30.901 33.616
H 25.949 30.476 35.015
H 24.396 31.159 35.138
C 25.466 33.998 36.983
H 25.591 34.898 36.47 
H 25.875 34.075 37.996
C 23.89  33.879 37.026
H 23.659 32.893 37.449
H 23.611 34.648 37.707
C 23.127 34.314 35.826
O 23.483 35.236 35.109
O 22.102 33.449 35.635
N 29.847 33.771 32.702
C 28.608 33.693 32.157
C 28.708 34.005 30.737
C 30.054 34.236 30.46 
C 30.727 34.04  31.726
C 27.586 33.971 29.834
H 26.964 34.839 30.084
H 27.876 34.037 28.744
H 27.073 33.013 29.926
C 30.876 34.655 29.287
H 31.88  34.169 29.177
C 30.488 35.542 28.316
H 29.396 35.925 28.357
H 31.1   35.848 27.453
N 32.211 33.9   34.435
C 32.804 34.101 33.196
C 34.218 34.217 33.43 
C 34.427 34.087 34.803
C 33.207 33.817 35.412
C 35.202 34.333 32.295
H 35.277 33.387 31.763
H 34.739 35.08  31.708
H 36.185 34.817 32.567
C 35.787 34.062 35.554
H 35.823 33.216 36.212
H 36.603 33.903 34.858
C 36.089 35.317 36.379
H 37.09  35.101 36.789
H 36.177 36.173 35.739
H 35.441 35.514 37.295
N 30.869 33.125 36.703
C 31.991 33.249 37.437
C 31.758 33.076 38.847
C 30.437 32.855 38.915
C 29.891 32.905 37.543
C 32.664 33.232 40.014
H 32.931 32.197 40.276
H 33.515 33.898 39.732
H 32.252 33.593 40.961
C 29.304 32.717 39.799
O 29.213 32.675 40.974
C 28.038 32.65  38.905
H 27.419 33.402 39.351
C 27.455 31.337 39.056
O 27.671 30.388 38.373
O 26.666 31.283 40.17 
C 26.528 29.931 40.686
H 25.544 29.896 41.152
H 26.484 29.159 39.893
H 27.362 29.793 41.309
C 21.531 33.668 34.272
H 22.329 33.46  33.485
H 21.086 34.644 34.008
C 20.472 32.546 34.101
H 19.501 32.776 34.475
C 20.512 31.424 33.355
C 21.725 30.876 32.566
H 21.933 29.836 32.829
H 21.519 30.971 31.488
H 22.691 31.437 32.832
C 19.182 30.691 33.19 
H 18.804 30.63  34.249
H 19.249 29.649 32.773
C 18.062 31.485 32.407
H 18.05  32.525 32.501
H 17.071 31.165 32.819
C 18.082 31.191 30.935
H 19.135 30.998 30.686
H 18.026 32.132 30.368
C 17.294 29.895 30.53 
H 17.682 29.23  31.304
C 17.809 29.424 29.147
H 18.869 29.171 29.341
H 17.27  28.503 28.715
H 17.737 30.226 28.314
C 15.727 30.059 30.608
H 15.337 30.279 31.627
H 15.418 29.029 30.375
C 15.176 31.163 29.709
H 16.014 31.714 29.266
H 14.522 31.932 30.217
C 14.293 30.499 28.616
H 14.254 29.394 28.636
H 14.575 30.677 27.564
C 12.868 31.19  28.495
H 13.024 32.258 28.273
C 11.943 30.964 29.728
H 11.734 29.859 29.664
H 12.427 31.288 30.624
H 10.941 31.432 29.661
C 12.107 30.715 27.212
H 11.84  29.688 27.243
H 12.734 30.774 26.4  
C 10.912 31.581 26.846
H 11.037 31.852 25.839
H 10.957 32.452 27.433
C  9.549 30.84  26.834
H  9.666 29.841 27.26 
H  9.138 30.632 25.832
C  8.525 31.544 27.68 
H  8.975 31.85  28.617
C  7.318 30.513 27.945
H  7.637 29.716 28.576
H  6.631 31.07  28.543
H  6.965 30.113 27.016
C  8.051 32.795 26.829
H  8.81  33.512 26.965
H  7.792 32.411 25.801
H  7.167 33.255 27.342
