137

Mg 20.312 26.698 33.029
C 23.239 26.027 34.875
C 19.813 29.45  35.088
H 19.55  30.293 35.761
C 17.609 27.413 31.243
H 16.666 27.561 30.724
C 20.617 23.684 31.424
H 20.574 22.612 31.165
N 21.43  27.678 34.749
C 22.631 27.242 35.269
C 23.161 28.199 36.273
H 23.085 27.661 37.185
C 22.06  29.254 36.359
H 22.301 30.246 35.947
C 20.971 28.747 35.415
C 21.563 29.397 37.824
H 20.903 30.317 37.863
H 20.968 28.586 38.226
H 22.46  29.594 38.502
C 24.494 28.848 35.827
H 24.304 29.69  35.151
H 25.076 28.14  35.233
C 25.42  29.251 37.003
H 24.989 28.7   37.779
H 26.382 28.898 36.792
C 25.431 30.709 37.298
O 26.429 31.337 37.675
O 24.209 31.237 37.369
N 18.9   28.166 33.198
C 18.865 29.187 34.101
C 17.674 30.073 33.824
C 16.923 29.388 32.806
C 17.835 28.279 32.359
C 17.321 31.387 34.546
H 17.754 31.675 35.498
H 17.651 32.073 33.823
H 16.229 31.428 34.584
C 15.649 29.679 32.057
H 15.083 28.969 31.446
C 15.142 30.953 32.006
H 15.493 31.775 32.66 
H 14.245 31.138 31.388
N 19.423 25.77  31.479
C 18.307 26.228 30.853
C 17.978 25.359 29.712
C 18.762 24.186 29.908
C 19.637 24.506 30.951
C 16.97  25.643 28.634
H 16.814 24.815 27.903
H 16.067 25.702 29.205
H 17.135 26.603 28.179
C 18.696 22.975 29.022
H 18.492 22.062 29.591
H 17.72  22.982 28.452
C 19.895 22.743 28.19 
H 19.611 22.1   27.378
H 20.257 23.625 27.608
H 20.736 22.266 28.806
N 21.651 25.134 33.059
C 21.653 23.945 32.332
C 22.85  23.098 32.725
C 23.517 23.886 33.697
C 22.742 25.06  33.869
C 23.242 21.801 32.215
H 24.2   21.829 31.702
H 23.221 21.111 33.022
H 22.481 21.566 31.481
C 24.644 24.018 34.603
O 25.63  23.35  34.665
C 24.499 25.332 35.448
H 25.44  25.959 35.437
C 24.33  25.01  36.871
O 23.498 24.179 37.274
O 25.333 25.57  37.57 
C 25.195 25.405 39.041
H 25.053 24.329 39.254
H 26.128 25.746 39.526
H 24.353 26.019 39.362
C 24.219 32.637 37.813
H 24.658 33.306 37.141
H 24.742 32.882 38.741
C 22.735 32.777 38.165
H 22.433 32.612 39.189
C 21.665 33.088 37.38 
C 21.813 33.437 35.95 
H 22.867 33.386 35.611
H 21.233 32.843 35.225
H 21.501 34.409 35.871
C 20.25  33.162 37.893
H 20.102 32.587 38.766
H 19.709 32.442 37.296
C 19.517 34.544 37.983
H 20.28 35.35 38.11
H 18.993 34.531 38.914
C 18.639 34.786 36.807
H 18.727 34.024 36.062
H 18.945 35.743 36.365
C 17.088 34.843 37.179
H 16.964 35.553 37.992
C 16.609 33.473 37.733
H 17.064 32.525 37.29 
H 16.843 33.357 38.774
H 15.553 33.477 37.636
C 16.148 35.426 36.11 
H 15.182 35.208 36.511
H 16.139 34.991 35.118
C 16.43  36.977 35.948
H 17.323 37.198 36.564
H 15.594 37.524 36.429
C 16.635 37.495 34.493
H 15.681 37.747 34.12 
H 17.021 36.618 34.039
C 17.541 38.652 34.224
H 18.495 38.371 34.697
C 16.976 39.93  34.811
H 17.559 40.786 34.525
H 16.051 40.158 34.32 
H 16.723 39.846 35.881
C 17.585 38.81  32.681
H 17.803 39.791 32.459
H 16.615 38.623 32.3  
C 18.679 37.801 32.031
H 18.156 36.951 31.627
H 19.252 37.334 32.806
C 19.611 38.506 31.021
H 19.179 39.448 30.725
H 19.595 38.043 30.091
C 21.07  38.72  31.506
H 21.486 37.798 31.891
C 21.048 39.721 32.722
H 22.059 39.89  33.157
H 20.559 40.671 32.38 
H 20.503 39.275 33.528
C 22.068 39.127 30.446
H 23.098 39.248 30.815
H 22.006 38.45  29.595
H 21.835 40.104 30.094
