137

Mg 19.578 26.805 32.062
C 20.559 23.778 33.498
C 16.612 26.572 33.892
H 15.697 26.575 34.482
C 18.396 29.634 30.556
H 17.852 30.407 29.923
C 22.085 26.507 29.747
H 22.871 26.484 28.995
N 18.813 25.509 33.602
C 19.388 24.33  34.069
C 18.575 23.607 35.106
H 18.404 22.557 34.822
C 17.21  24.314 34.951
H 16.829 24.733 35.914
C 17.546 25.557 34.14 
C 16.063 23.335 34.347
H 16.573 22.741 33.625
H 15.581 22.785 35.111
H 15.297 23.946 33.761
C 19.203 23.588 36.559
H 19.656 24.574 36.654
H 20.035 22.817 36.538
C 18.316 23.192 37.762
H 17.279 23.212 37.486
H 18.563 22.22  38.085
C 18.399 24.12  38.943
O 19.28  24.154 39.801
O 17.245 24.957 38.976
N 17.871 27.967 32.294
C 16.799 27.754 33.119
C 15.819 28.79  33.001
C 16.319 29.675 32.049
C 17.592 29.18  31.598
C 14.568 29.04  33.872
H 14.601 28.527 34.745
H 14.682 30.102 34.116
H 13.693 28.802 33.416
C 15.686 30.929 31.503
H 16.371 31.646 31.068
C 14.396 31.223 31.429
H 13.649 30.634 31.954
H 13.973 32.108 30.918
N 20.197 27.98  30.513
C 19.608 29.127 30.081
C 20.485 29.742 29.12 
C 21.502 28.801 28.871
C 21.299 27.689 29.82 
C 20.267 31.096 28.392
H 20.176 30.953 27.314
H 19.35  31.619 28.69 
H 21.158 31.678 28.526
C 22.654 29.023 27.958
H 22.845 28.089 27.381
H 22.451 29.739 27.22 
C 24.039 29.233 28.7  
H 23.913 29.957 29.469
H 24.44  28.347 29.217
H 24.891 29.599 28.111
N 21.176 25.463 31.747
C 22.017 25.357 30.653
C 22.798 24.149 30.796
C 22.247 23.554 31.894
C 21.289 24.356 32.451
C 24.035 23.734 29.993
H 24.313 22.714 30.124
H 23.801 23.91  28.931
H 24.889 24.382 30.243
C 22.365 22.451 32.778
O 23.205 21.514 32.714
C 21.336 22.504 33.903
H 21.92  22.676 34.824
C 20.616 21.217 33.792
O 19.947 20.84  32.838
O 20.672 20.568 35.014
C 20.135 19.205 34.977
H 20.299 18.53  34.092
H 20.695 18.671 35.779
H 19.055 19.273 35.185
C 17.215 25.981 40.012
H 18.031 26.695 39.97 
H 17.136 25.534 40.981
C 16.023 26.796 39.74 
H 15.218 26.733 40.531
C 15.74  27.55  38.635
C 16.707 27.887 37.47 
H 17.689 27.502 37.782
H 16.354 27.357 36.562
H 16.99  28.967 37.479
C 14.407 28.329 38.637
H 13.714 27.891 39.325
H 13.871 28.201 37.699
C 14.696 29.936 38.841
H 15.779 30.147 39.022
H 14.161 30.282 39.664
C 14.201 30.819 37.687
H 13.144 31.249 37.953
H 14.009 30.213 36.824
C 15.128 32.033 37.272
H 16.127 31.622 36.959
C 15.192 33.013 38.494
H 15.865 33.836 38.267
H 14.197 33.37  38.713
H 15.442 32.444 39.414
C 14.55  32.766 36.004
H 13.499 33.025 36.098
H 14.649 32.036 35.142
C 15.26  33.973 35.369
H 15.883 33.486 34.615
H 15.891 34.442 36.083
C 14.32  34.941 34.725
H 13.329 34.994 35.192
H 14.288 34.636 33.711
C 14.666 36.423 34.645
H 15.675 36.526 34.288
C 14.602 37.339 35.874
H 14.94  38.357 35.595
H 13.558 37.371 36.242
H 15.235 36.87  36.625
C 13.823 37.285 33.555
H 14.231 38.305 33.629
H 12.762 37.229 33.797
C 13.861 36.729 32.142
H 12.902 36.334 31.96 
H 14.663 35.974 32.042
C 14.112 37.846 31.056
H 15.174 37.882 31.168
H 13.698 38.79  31.374
C 13.754 37.443 29.643
H 13.948 36.36  29.535
C 14.589 38.196 28.6  
H 14.201 37.984 27.593
H 14.526 39.252 28.807
H 15.648 37.933 28.748
C 12.198 37.518 29.305
H 12.128 37.192 28.22 
H 11.533 36.893 29.859
H 11.935 38.592 29.352
