137

Mg 28.585 26.918 44.914
C 25.476 25.829 43.929
C 29.527 26.883 41.645
H 29.756 26.882 40.585
C 31.357 28.767 45.612
H 32.205 29.438 45.939
C 27.392 27.359 48.14 
H 27.104 27.575 49.123
N 27.648 26.474 43.121
C 26.391 26.029 42.929
C 26.07  25.698 41.582
H 25.808 24.663 41.589
C 27.457 25.806 40.833
H 27.524 26.54  40.08 
C 28.276 26.4   41.935
C 28.119 24.476 40.393
H 27.539 23.991 39.596
H 29.186 24.655 40.122
H 28.036 23.878 41.302
C 24.987 26.673 41.031
H 25.346 27.656 41.115
H 24.177 26.634 41.704
C 24.469 26.394 39.634
H 24.992 25.599 39.207
H 23.454 26.177 39.697
C 24.596 27.45  38.603
O 25.606 27.835 38.037
O 23.281 27.734 38.254
N 30.253 27.643 43.772
C 30.447 27.506 42.423
C 31.658 28.127 42.041
C 32.267 28.595 43.247
C 31.276 28.355 44.308
C 32.286 28.09  40.661
H 31.742 28.828 40.086
H 33.381 28.302 40.715
H 32.233 27.111 40.124
C 33.514 29.237 43.628
H 33.604 30.019 44.403
C 34.688 28.835 43.102
H 34.688 28.078 42.333
H 35.603 29.243 43.436
N 29.272 27.877 46.557
C 30.387 28.592 46.675
C 30.498 29.195 47.975
C 29.33  28.718 48.668
C 28.628 27.882 47.788
C 31.616 30.109 48.388
H 32.499 29.43  48.455
H 31.779 30.903 47.669
H 31.465 30.599 49.338
C 28.872 29.124 50.123
H 28.637 28.198 50.735
H 29.712 29.618 50.65 
C 27.644 30.056 50.192
H 27.407 30.248 51.26 
H 27.737 30.988 49.664
H 26.85  29.637 49.6  
N 26.913 26.546 45.923
C 26.582 26.712 47.253
C 25.301 26.206 47.465
C 24.812 25.827 46.21 
C 25.849 26.114 45.271
C 24.61  26.205 48.776
H 23.747 25.508 48.753
H 25.179 25.674 49.477
H 24.362 27.17  49.184
C 23.742 25.189 45.515
O 22.706 24.763 45.931
C 24.013 25.261 44.007
H 23.29  25.932 43.571
C 23.696 23.895 43.534
O 24.358 22.87  43.812
O 22.575 23.966 42.742
C 22.156 22.666 42.286
H 21.159 22.736 41.924
H 22.795 22.468 41.452
H 22.238 21.803 43.067
C 23.212 28.526 37.013
H 23.65  28.001 36.164
H 23.448 29.596 37.201
C 21.734 28.469 36.63 
H 21.213 27.635 37.138
C 21.071 29.378 35.816
C 21.607 30.602 35.076
H 21.78  30.438 34.028
H 20.734 31.276 35.238
H 22.511 31.003 35.612
C 19.58  29.15  35.575
H 19.25  28.165 35.52 
H 19.352 29.568 34.667
C 18.859 29.98  36.69 
H 18.585 30.934 36.348
H 19.488 30.161 37.528
C 17.668 29.247 37.282
H 17.737 29.505 38.353
H 17.719 28.121 37.155
C 16.236 29.521 36.693
H 16.153 30.546 36.803
C 15.143 28.781 37.442
H 14.184 28.884 36.851
H 15.521 27.799 37.472
H 15.133 29.119 38.49 
C 16.077 29.448 35.091
H 16.936 29.972 34.696
H 15.177 29.95  34.742
C 16.32  28.024 34.472
H 16.686 27.268 35.202
H 17.115 28.034 33.675
C 15.01  27.434 33.864
H 14.163 28.096 34.202
H 14.948 26.422 34.26 
C 15.012 27.304 32.33 
H 15.933 26.959 31.945
C 14.701 28.731 31.743
H 13.705 29.119 32.023
H 15.54  29.275 32.038
H 14.771 28.735 30.727
C 13.878 26.245 32.065
H 12.953 26.645 32.398
H 14.098 25.337 32.609
C 13.625 25.818 30.627
H 13.932 24.75  30.602
H 14.37  26.349 30.045
C 12.188 26.211 30.046
H 12.454 26.518 29.038
H 11.825 27.075 30.568
C 11.068 25.041 30.121
H 11.045 24.651 31.186
C 11.322 23.856 29.22 
H 12.308 23.564 29.507
H 10.538 23.133 29.46 
H 11.182 24.035 28.097
C  9.666 25.571 29.951
H  8.931 24.877 30.23 
H  9.518 26.513 30.468
H  9.482 25.873 28.927
