137

Mg 34.825 30.021 33.206
C 31.852 28.521 33.607
C 35.279 28.335 30.284
H 35.498 27.762 29.352
C 37.655 31.864 32.585
H 38.63  32.327 32.348
C 34.298 31.63  36.275
H 34.111 32.141 37.297
N 33.705 28.595 32.049
C 32.518 28.092 32.471
C 31.956 27.173 31.386
H 31.912 26.186 31.883
C 33.092 27.097 30.253
H 32.772 27.445 29.283
C 34.081 28.051 30.849
C 33.617 25.645 30.159
H 34.406 25.641 29.388
H 33.989 25.256 31.152
H 32.836 25.04  29.794
C 30.548 27.661 30.809
H 30.647 28.649 30.309
H 29.742 27.748 31.511
C 29.929 26.706 29.795
H 30.246 26.989 28.838
H 30.176 25.657 29.904
C 28.407 26.683 29.686
O 27.704 25.635 29.836
O 27.966 27.977 29.505
N 36.209 30.173 31.656
C 36.303 29.23  30.622
C 37.556 29.427 29.839
C 38.19  30.52  30.453
C 37.315 30.919 31.657
C 37.997 28.601 28.585
H 38.38  27.686 28.971
H 37.08  28.255 28.085
H 38.675 29.117 27.876
C 39.462 30.956 30.094
H 39.645 31.131 29.036
C 40.506 31.    30.943
H 40.467 30.685 31.963
H 41.435 31.268 30.468
N 35.793 31.551 34.205
C 36.929 32.194 33.79 
C 37.3   33.146 34.738
C 36.373 33.042 35.788
C 35.395 32.055 35.42 
C 38.61  33.952 34.629
H 38.706 34.485 35.533
H 39.48  33.359 34.564
H 38.52  34.62  33.779
C 36.401 33.912 37.047
H 35.992 33.341 37.818
H 37.449 34.18  37.373
C 35.518 35.164 36.828
H 36.01  35.825 36.08 
H 34.647 34.825 36.335
H 35.158 35.554 37.79 
N 33.398 30.142 34.669
C 33.358 30.767 35.912
C 32.115 30.442 36.529
C 31.512 29.516 35.704
C 32.256 29.475 34.512
C 31.717 30.932 37.845
H 30.628 30.81  37.929
H 32.247 30.285 38.616
H 32.039 31.935 37.971
C 30.363 28.518 35.578
O 29.44  28.265 36.346
C 30.477 27.93  34.123
H 29.639 28.344 33.616
C 30.465 26.43  34.137
O 31.224 25.804 34.857
O 29.417 25.924 33.434
C 29.165 24.495 33.24 
H 28.089 24.461 33.162
H 29.697 23.999 32.409
H 29.428 24.042 34.172
C 26.496 27.91  29.322
H 26.12  27.865 30.38 
H 26.212 26.945 28.84 
C 26.036 29.102 28.541
H 26.747 29.402 27.778
C 24.978 29.898 28.69 
C 24.098 29.903 29.943
H 24.699 30.452 30.66 
H 23.184 30.423 29.902
H 23.996 28.932 30.296
C 24.752 31.156 27.899
H 25.72  31.493 27.498
H 24.447 31.928 28.553
C 23.691 31.121 26.715
H 23.139 30.249 26.713
H 24.316 31.226 25.856
C 22.649 32.258 26.823
H 23.081 33.262 26.977
H 21.935 31.961 27.586
C 21.757 32.386 25.504
H 21.159 31.439 25.341
C 22.664 32.618 24.21 
H 23.124 31.695 23.894
H 22.006 32.892 23.362
H 23.423 33.394 24.438
C 20.655 33.497 25.68 
H 20.2   33.798 24.768
H 21.186 34.408 25.832
C 19.534 33.237 26.674
H 19.451 32.177 26.928
H 18.593 33.563 26.218
C 19.681 34.018 28.022
H 18.852 34.698 28.096
H 20.597 34.51  28.078
C 19.625 33.213 29.398
H 20.393 32.413 29.322
C 18.351 32.502 29.585
H 18.177 31.875 28.633
H 18.382 31.774 30.419
H 17.546 33.223 29.699
C 19.951 34.098 30.674
H 19.91  33.518 31.529
H 19.174 34.874 30.771
C 21.357 34.671 30.589
H 21.258 35.696 30.208
H 22.071 34.086 29.969
C 21.994 34.893 31.973
H 21.219 34.655 32.699
H 22.163 35.969 32.214
C 23.352 34.195 32.204
H 24.027 34.48  31.43 
C 23.123 32.654 32.459
H 23.987 32.166 32.912
H 22.31  32.541 33.122
H 22.926 32.25  31.494
C 24.051 34.748 33.468
H 24.923 34.168 33.778
H 24.586 35.705 33.474
H 23.311 34.698 34.274
