137

Mg 36.466 34.612 36.789
C 32.953 34.315 36.579
C 36.675 32.264 34.27 
H 36.893 31.498 33.527
C 39.716 35.418 36.583
H 40.767 35.619 36.475
C 35.979 36.922 39.279
H 35.918 37.503 40.173
N 34.995 33.635 35.519
C 33.621 33.67  35.543
C 33.012 32.829 34.456
H 32.072 32.305 34.804
C 34.194 31.867 34.038
H 34.324 31.847 32.961
C 35.371 32.67  34.602
C 34.166 30.449 34.761
H 33.234 29.914 34.636
H 35.031 29.792 34.563
H 34.227 30.829 35.759
C 32.6   33.869 33.311
H 33.445 34.5   33.024
H 32.04  34.581 33.859
C 31.82  33.309 32.106
H 32.522 33.589 31.309
H 31.625 32.244 32.272
C 30.535 34.058 31.918
O 30.214 34.782 30.99 
O 29.575 33.678 32.868
N 37.933 33.919 35.606
C 37.844 32.905 34.726
C 39.166 32.559 34.219
C 40.041 33.521 34.762
C 39.263 34.431 35.658
C 39.325 31.563 33.034
H 40.312 31.3   32.778
H 38.941 30.652 33.29 
H 38.708 31.766 32.114
C 41.523 33.702 34.49 
H 41.922 34.656 34.57 
C 42.353 32.739 34.037
H 42.071 31.688 33.824
H 43.471 32.952 33.996
N 37.668 35.895 37.735
C 38.997 36.067 37.529
C 39.54  37.083 38.404
C 38.495 37.469 39.253
C 37.282 36.791 38.739
C 40.983 37.419 38.493
H 41.228 38.018 39.382
H 41.545 36.52  38.492
H 41.197 37.979 37.604
C 38.608 38.46  40.427
H 37.968 38.178 41.29 
H 39.571 38.34  41.037
C 38.432 39.974 39.962
H 38.333 40.732 40.738
H 39.332 40.216 39.436
H 37.662 40.046 39.175
N 34.916 35.468 37.778
C 34.848 36.403 38.752
C 33.456 36.661 39.177
C 32.769 35.846 38.336
C 33.623 35.154 37.485
C 32.97  37.616 40.234
H 33.851 37.999 40.74 
H 32.412 38.419 39.897
H 32.399 37.101 41.003
C 31.413 35.535 37.949
O 30.312 35.992 38.255
C 31.483 34.563 36.806
H 31.001 34.921 35.89 
C 30.791 33.32  37.317
O 31.397 32.352 37.852
O 29.46  33.244 36.855
C 28.672 32.032 37.2  
H 28.451 31.855 38.277
H 27.683 32.115 36.745
H 29.194 31.185 36.807
C 28.253 34.118 32.543
H 27.736 33.471 31.816
H 28.158 35.165 32.24 
C 27.513 34.109 33.89 
H 28.112 34.239 34.746
C 26.148 33.865 34.15 
C 25.09  33.608 33.118
H 25.477 33.211 32.192
H 24.384 32.938 33.567
H 24.601 34.589 32.914
C 25.645 33.888 35.54 
H 26.492 33.956 36.225
H 25.234 32.87  35.707
C 24.807 35.097 36.039
H 24.584 35.813 35.311
H 25.399 35.573 36.773
C 23.374 34.588 36.548
H 23.417 34.607 37.698
H 23.155 33.581 36.191
C 22.141 35.46  36.215
H 22.141 35.809 35.194
C 22.074 36.743 37.054
H 21.339 37.452 36.705
H 21.676 36.445 37.98 
H 23.088 37.173 37.125
C 20.796 34.69  36.294
H 20.694 34.16  35.329
H 19.933 35.447 36.312
C 20.584 33.893 37.564
H 19.698 34.238 38.079
H 21.41  33.947 38.327
C 20.304 32.433 37.155
H 20.476 32.3   36.096
H 19.228 32.429 37.268
C 20.935 31.183 37.753
H 20.963 31.167 38.894
C 22.44  31.035 37.324
H 23.117 31.789 37.659
H 22.732 30.112 37.755
H 22.533 30.976 36.247
C 20.289 29.824 37.393
H 20.936 29.099 37.864
H 20.331 29.655 36.34 
C 18.774 29.651 37.774
H 18.477 30.465 38.437
H 18.815 28.808 38.287
C 17.832 29.335 36.569
H 17.645 28.228 36.653
H 18.449 29.455 35.645
C 16.469 30.032 36.499
H 16.626 31.104 36.713
C 15.634 29.383 37.564
H 14.734 30.01  37.813
H 15.377 28.314 37.283
H 16.143 29.326 38.539
C 15.715 30.136 35.131
H 14.775 30.623 35.366
H 16.254 30.803 34.412
H 15.552 29.199 34.599
