137

Mg 36.36  33.082 35.763
C 32.837 32.988 36.386
C 35.931 30.521 33.638
H 35.856 29.682 33.024
C 39.438 33.649 34.57 
H 40.387 33.774 34.07 
C 36.548 35.725 37.923
H 36.624 36.56  38.6  
N 34.69  31.764 35.212
C 33.349 31.93  35.535
C 32.456 30.89  34.792
H 31.844 30.32  35.491
C 33.536 29.997 34.139
H 33.423 29.977 33.128
C 34.806 30.789 34.325
C 33.527 28.606 34.817
H 32.626 28.037 34.534
H 34.461 28.027 34.498
H 33.445 28.645 35.883
C 31.686 31.636 33.734
H 32.433 32.355 33.325
H 31.026 32.293 34.206
C 30.895 30.845 32.61 
H 31.534 30.493 31.81 
H 30.516 30.001 33.226
C 29.682 31.539 31.934
O 29.551 31.712 30.779
O 28.803 31.983 32.931
N 37.432 32.163 34.364
C 37.153 31.118 33.625
C 38.237 30.741 32.738
C 39.288 31.655 32.987
C 38.746 32.531 34.038
C 38.218 29.595 31.786
H 39.276 29.304 31.496
H 37.861 28.663 32.272
H 37.548 29.934 31.018
C 40.537 31.824 32.252
H 41.334 32.373 32.693
C 40.729 31.483 30.916
H 40.015 30.871 30.281
H 41.675 31.74  30.374
N 37.831 34.504 36.146
C 39.071 34.54  35.555
C 39.824 35.613 36.122
C 38.989 36.169 37.14 
C 37.705 35.499 37.111
C 41.252 35.96  35.903
H 41.832 35.925 36.852
H 41.652 35.312 35.143
H 41.195 36.998 35.543
C 39.494 37.2   38.193
H 39.106 36.898 39.126
H 40.593 37.213 38.293
C 38.863 38.536 37.864
H 37.831 38.307 37.643
H 39.155 39.239 38.632
H 39.349 38.906 36.954
N 35.045 34.131 36.92 
C 35.274 35.177 37.797
C 34.021 35.454 38.58 
C 33.083 34.673 37.977
C 33.716 33.908 37.023
C 33.826 36.396 39.648
H 32.788 36.651 39.809
H 34.266 35.974 40.533
H 34.409 37.232 39.35 
C 31.729 34.168 38.098
O 30.803 34.552 38.83 
C 31.452 33.134 36.968
H 30.64  33.484 36.337
C 31.091 31.955 37.799
O 31.745 31.46  38.74 
O 29.93  31.432 37.337
C 29.512 30.135 37.965
H 29.598 30.131 39.051
H 28.497 30.101 37.622
H 30.137 29.315 37.645
C 27.703 32.748 32.296
H 27.355 32.46  31.323
H 28.039 33.816 32.305
C 26.534 32.694 33.169
H 26.611 33.25  34.145
C 25.336 32.131 32.979
C 24.933 31.266 31.793
H 23.815 31.377 31.563
H 25.316 31.764 30.972
H 25.28  30.283 31.985
C 24.172 32.384 33.909
H 24.64  32.888 34.765
H 23.862 31.502 34.444
C 23.046 33.334 33.346
H 23.376 33.758 32.414
H 22.943 34.149 34.045
C 21.635 32.648 33.358
H 21.411 32.492 34.457
H 21.641 31.674 32.968
C 20.52  33.327 32.606
H 20.688 33.338 31.512
C 20.257 34.695 33.091
H 19.371 35.118 32.635
H 20.207 34.761 34.209
H 21.058 35.321 32.764
C 19.263 32.497 32.596
H 19.363 31.664 31.873
H 18.569 33.164 32.011
C 18.56  32.18  33.916
H 17.521 32.285 33.766
H 18.95  32.923 34.738
C 18.701 30.649 34.24 
H 19.501 30.197 33.556
H 17.797 30.186 33.885
C 18.667 30.336 35.759
H 17.854 31.    36.115
C 20.066 30.614 36.396
H 20.235 31.688 36.438
H 20.063 30.247 37.354
H 20.842 30.134 35.857
C 18.254 28.841 35.944
H 18.296 28.87  37.043
H 19.018 28.161 35.52 
C 16.814 28.418 35.612
H 16.229 29.331 35.443
H 16.388 27.866 36.47 
C 16.684 27.355 34.508
H 17.57  27.235 33.883
H 15.938 27.897 33.88 
C 15.964 26.041 34.873
H 15.073 26.294 35.481
C 16.754 25.201 35.879
H 16.459 24.11  35.968
H 17.811 25.229 35.636
H 16.645 25.556 36.876
C 15.684 25.241 33.622
H 15.204 24.276 33.765
H 15.029 25.762 32.974
H 16.679 25.051 33.115
