137

Mg 27.136 32.065 40.133
C 25.199 29.37  41.129
C 24.349 33.655 38.973
H 23.516 34.315 38.607
C 28.973 34.697 39.339
H 29.62  35.495 38.993
C 29.794 30.642 41.639
H 30.609 30.203 42.118
N 25.042 31.553 39.998
C 24.443 30.409 40.545
C 22.95  30.431 40.261
H 22.88  29.627 39.531
C 22.685 31.688 39.465
H 22.039 32.356 39.941
C 24.114 32.359 39.487
C 22.213 31.51  37.998
H 21.869 32.47  37.683
H 22.988 31.046 37.405
H 21.314 30.873 37.986
C 21.999 30.125 41.422
H 21.866 30.972 42.125
H 22.424 29.424 42.084
C 20.608 29.65  41.126
H 20.538 29.35  40.09 
H 20.295 28.799 41.727
C 19.45  30.688 41.259
O 18.849 30.874 42.301
O 19.358 31.537 40.153
N 26.694 33.781 39.258
C 25.544 34.295 38.888
C 25.754 35.59  38.228
C 27.082 35.923 38.412
C 27.635 34.801 39.037
C 24.729 36.621 37.691
H 24.792 37.593 38.202
H 25.041 36.841 36.673
H 23.666 36.225 37.691
C 27.619 37.286 37.992
H 26.893 38.12  38.022
C 28.824 37.534 37.533
H 29.56  36.754 37.369
H 29.116 38.499 37.106
N 29.062 32.542 40.36 
C 29.709 33.648 39.917
C 31.198 33.638 40.27 
C 31.321 32.447 40.921
C 30.001 31.843 40.98 
C 32.202 34.672 40.007
H 33.172 34.186 40.15 
H 32.04  34.954 38.997
H 32.03  35.453 40.628
C 32.594 31.956 41.559
H 32.601 30.885 41.617
H 33.466 32.269 40.901
C 32.756 32.528 42.878
H 31.88  32.356 43.572
H 33.587 32.027 43.298
H 33.149 33.552 42.801
N 27.459 30.363 41.224
C 28.599 29.846 41.721
C 28.392 28.542 42.298
C 27.044 28.199 41.99 
C 26.5   29.376 41.448
C 29.437 27.62  43.004
H 30.349 28.148 43.168
H 29.023 27.342 43.964
H 29.589 26.745 42.476
C 25.997 27.269 41.955
O 25.925 26.093 42.257
C 24.801 27.94  41.432
H 24.008 27.903 42.242
C 24.439 27.167 40.228
O 25.179 26.964 39.3  
O 23.101 26.921 40.202
C 22.544 26.213 39.069
H 22.872 26.844 38.261
H 22.841 25.129 39.103
H 21.436 26.186 39.034
C 18.786 32.875 40.323
H 19.09  33.344 41.203
H 17.711 32.846 40.471
C 19.252 33.732 39.162
H 18.794 33.493 38.158
C 20.007 34.873 39.259
C 20.654 35.277 40.629
H 19.79  35.441 41.296
H 21.369 34.481 40.958
H 21.221 36.206 40.508
C 20.312 35.689 37.988
H 19.865 35.139 37.149
H 21.37  35.775 37.784
C 19.583 37.098 37.899
H 20.015 37.656 37.056
H 19.848 37.534 38.877
C 18.013 36.868 37.729
H 17.673 37.05  38.71 
H 17.756 35.793 37.495
C 17.219 37.895 36.872
H 17.568 38.827 37.263
C 15.727 37.909 37.214
H 15.682 37.902 38.348
H 15.35  38.844 36.791
H 15.302 37.053 36.712
C 17.548 37.831 35.362
H 18.631 37.768 35.303
H 17.119 38.634 34.861
C 17.181 36.569 34.582
H 16.672 36.989 33.702
H 16.438 35.865 35.06 
C 18.351 35.683 34.191
H 18.895 35.504 35.09 
H 18.936 36.329 33.637
C 18.096 34.395 33.528
H 17.511 33.865 34.304
C 19.362 33.552 33.302
H 19.101 32.599 32.957
H 20.079 34.027 32.608
H 19.825 33.571 34.259
C 17.266 34.548 32.262
H 17.805 35.063 31.439
H 16.372 35.199 32.426
C 16.503 33.294 31.791
H 15.361 33.394 31.907
H 16.714 32.441 32.418
C 16.735 32.995 30.254
H 16.977 33.854 29.701
H 15.778 32.566 29.781
C 17.786 31.885 29.96 
H 18.811 32.059 30.484
C 17.911 31.711 28.416
H 18.499 30.874 28.176
H 16.878 31.603 28.037
H 18.278 32.72  28.169
C 17.434 30.552 30.667
H 16.418 30.293 30.449
H 18.086 29.832 30.166
H 17.771 30.621 31.706
