137

Mg 28.621 30.32  32.532
C 27.741 27.084 31.787
C 29.626 30.733 29.262
H 29.787 30.814 28.223
C 29.366 33.495 33.24 
H 29.514 34.508 33.446
C 27.848 29.688 35.766
H 27.56  29.422 36.78 
N 28.806 28.98  30.785
C 28.41  27.689 30.685
C 28.624 27.134 29.25 
H 29.322 26.282 29.325
C 29.483 28.242 28.522
H 29.065 28.39  27.508
C 29.245 29.451 29.548
C 31.048 27.872 28.562
H 31.293 27.315 29.469
H 31.173 27.234 27.658
H 31.669 28.753 28.488
C 27.268 26.88  28.557
H 26.764 27.794 28.633
H 26.663 26.149 29.06 
C 27.317 26.476 27.137
H 26.647 27.098 26.517
H 28.373 26.627 26.8  
C 26.991 24.957 26.86 
O 27.74  24.121 26.446
O 25.823 24.624 27.439
N 29.385 31.896 31.427
C 29.587 31.916 30.074
C 29.913 33.274 29.674
C 29.773 34.131 30.757
C 29.451 33.211 31.874
C 30.436 33.56  28.264
H 30.337 34.617 28.222
H 31.523 33.353 28.188
H 29.927 33.052 27.482
C 29.987 35.575 30.909
H 30.802 35.962 30.255
C 29.348 36.506 31.633
H 28.441 36.287 32.175
H 29.64  37.563 31.55 
N 28.865 31.402 34.314
C 29.088 32.723 34.375
C 28.859 33.064 35.777
C 28.525 32.002 36.499
C 28.469 30.947 35.565
C 29.015 34.498 36.183
H 28.96  35.112 35.388
H 28.221 34.716 36.938
H 29.981 34.672 36.676
C 28.237 31.881 37.98 
H 28.799 31.007 38.422
H 28.597 32.797 38.444
C 26.799 31.678 38.345
H 26.242 32.666 38.323
H 26.234 31.001 37.669
H 26.595 31.578 39.406
N 27.959 28.684 33.617
C 27.653 28.612 34.919
C 27.206 27.272 35.255
C 27.096 26.577 33.979
C 27.611 27.569 33.079
C 26.616 26.782 36.562
H 27.14  27.229 37.419
H 25.569 27.036 36.596
H 26.664 25.62  36.67 
C 26.616 25.387 33.312
O 25.956 24.422 33.625
C 27.101 25.691 31.819
H 26.207 25.751 31.205
C 28.108 24.602 31.508
O 29.131 24.448 32.161
O 27.713 23.783 30.487
C 28.685 22.761 30.136
H 28.187 21.933 29.6  
H 29.382 23.199 29.556
H 29.101 22.248 31.059
C 25.484 23.187 27.577
H 25.875 22.741 28.464
H 25.73  22.638 26.713
C 23.972 23.154 27.744
H 23.677 24.217 28.12 
C 23.106 22.199 27.317
C 23.693 20.83  27.   
H 24.299 20.563 27.827
H 22.924 20.043 26.805
H 24.361 20.916 26.124
C 21.662 22.33  27.402
H 21.472 23.304 27.9  
H 21.244 21.625 28.063
C 20.906 22.392 26.116
H 20.376 21.448 25.937
H 21.568 22.61  25.26 
C 19.828 23.51  26.044
H 19.968 24.183 25.161
H 19.979 24.072 26.936
C 18.339 23.03  25.804
H 18.48  22.177 25.16 
C 17.44  23.976 25.074
H 17.431 25.014 25.521
H 17.77  24.103 24.051
H 16.413 23.571 25.05 
C 17.641 22.432 27.003
H 18.419 21.749 27.354
H 16.824 21.823 26.633
C 17.159 23.425 28.142
H 16.088 23.399 28.04 
H 17.531 24.377 27.745
C 17.772 22.947 29.46 
H 18.766 23.48  29.453
H 17.954 21.871 29.398
C 16.959 23.231 30.791
H 16.654 24.233 30.565
C 17.833 23.377 32.104
H 18.336 22.4   32.18 
H 18.447 24.215 31.813
H 17.175 23.598 32.978
C 15.785 22.259 31.046
H 16.136 21.242 30.991
H 15.099 22.449 30.19 
C 14.736 22.498 32.164
H 13.859 23.032 31.796
H 15.174 23.157 32.92 
C 14.265 21.169 32.767
H 14.708 20.307 32.215
H 13.154 21.193 32.559
C 14.484 20.975 34.3  
H 14.119 21.829 34.814
C 16.011 20.871 34.673
H 16.049 20.642 35.768
H 16.54  20.17  34.048
H 16.452 21.862 34.47 
C 13.717 19.821 34.943
H 14.166 18.867 34.657
H 13.773 19.834 36.075
H 12.727 19.881 34.635
