137

Mg 22.942 19.166 28.277
C 23.393 16.964 25.731
C 25.731 20.971 27.115
H 26.598 21.606 26.803
C 22.852 21.115 31.005
H 22.704 21.818 31.833
C 20.511 17.099 29.577
H 19.707 16.473 29.924
N 24.445 18.943 26.655
C 24.31  18.026 25.623
C 25.257 18.364 24.546
H 25.769 17.415 24.344
C 26.084 19.567 25.12 
H 26.008 20.413 24.39 
C 25.389 19.798 26.412
C 27.58  19.333 25.349
H 27.839 18.591 25.978
H 28.017 19.029 24.475
H 28.03  20.307 25.629
C 24.514 18.644 23.137
H 24.202 19.704 23.258
H 23.641 17.971 23.028
C 25.468 18.886 21.934
H 26.449 19.155 22.236
H 25.569 18.001 21.3  
C 24.968 19.992 20.974
O 24.73  19.725 19.828
O 24.748 21.254 21.498
N 24.073 20.82  28.953
C 25.148 21.42  28.338
C 25.603 22.611 29.068
C 24.755 22.634 30.141
C 23.848 21.518 30.079
C 26.701 23.481 28.621
H 26.584 24.403 29.165
H 27.636 22.995 28.854
H 26.488 23.64  27.518
C 24.743 23.599 31.237
H 23.832 23.783 31.695
C 25.881 24.083 31.75 
H 26.881 23.911 31.293
H 25.86  24.835 32.56 
N 21.941 19.109 30.04 
C 22.021 20.017 31.038
C 20.984 19.823 32.037
C 20.278 18.7   31.657
C 20.956 18.191 30.405
C 20.83  20.825 33.218
H 19.964 21.447 32.929
H 20.421 20.172 34.014
H 21.736 21.369 33.54 
C 18.997 18.135 32.184
H 19.227 17.204 32.671
H 18.52  18.713 32.959
C 17.791 17.969 31.213
H 18.036 17.434 30.318
H 17.05  17.43  31.828
H 17.386 18.956 30.952
N 22.165 17.4   27.821
C 21.122 16.669 28.361
C 20.775 15.496 27.667
C 21.662 15.616 26.581
C 22.49  16.739 26.729
C 19.565 14.486 27.892
H 19.749 13.724 27.158
H 19.681 14.013 28.921
H 18.612 14.965 27.661
C 22.022 14.981 25.373
O 21.503 14.03  24.793
C 23.178 15.802 24.717
H 22.937 16.082 23.733
C 24.402 14.948 24.677
O 24.895 14.475 25.682
O 24.884 14.805 23.387
C 26.069 13.9   23.29 
H 25.936 13.005 23.825
H 26.287 13.599 22.288
H 26.919 14.466 23.467
C 24.26  22.275 20.464
H 23.358 21.87  20.049
H 24.979 22.524 19.702
C 24.128 23.534 21.295
H 25.031 23.913 21.677
C 23.026 24.03  21.926
C 21.635 23.436 21.808
H 21.007 23.642 22.671
H 21.211 23.95  21.011
H 21.609 22.399 21.576
C 23.271 24.982 23.081
H 24.39  25.22  23.133
H 23.116 24.46  24.102
C 22.421 26.257 22.962
H 21.448 26.024 23.49 
H 22.052 26.355 21.902
C 23.158 27.503 23.525
H 23.929 27.273 24.293
H 22.286 27.909 24.066
C 23.729 28.454 22.468
H 22.884 28.684 21.813
C 24.841 27.8   21.643
H 25.422 27.252 22.288
H 24.374 27.089 21.031
H 25.413 28.534 21.082
C 24.262 29.788 23.097
H 24.779 30.349 22.294
H 24.976 29.469 23.815
C 23.355 30.853 23.755
H 22.362 30.815 23.27 
H 23.826 31.834 23.645
C 23.119 30.49  25.209
H 23.903 30.981 25.802
H 23.237 29.407 25.316
C 21.836 31.128 25.846
H 20.928 30.632 25.506
C 21.75  32.659 25.47 
H 21.667 32.86  24.399
H 20.795 32.973 25.882
H 22.632 33.091 25.888
C 21.824 30.917 27.328
H 22.655 31.416 27.773
H 22.    29.849 27.551
C 20.52  31.277 28.115
H 19.912 31.99  27.599
H 20.789 31.877 29.041
C 19.629 30.058 28.45 
H 19.885 29.265 27.714
H 18.564 30.375 28.201
C 19.674 29.389 29.873
H 20.715 29.243 30.258
C 18.991 27.925 29.821
H 18.943 27.334 30.728
H 18.012 28.087 29.46 
H 19.567 27.426 29.09 
C 19.145 30.249 31.   
H 18.03  30.396 31.031
H 19.556 29.937 32.01 
H 19.612 31.175 30.806
