137

Mg 20.421 21.937 31.839
C 23.588 20.643 31.447
C 21.874 24.781 33.103
H 22.331 25.686 33.564
C 17.456 23.638 31.664
H 16.508 24.178 31.76 
C 19.001 19.338 30.249
H 18.624 18.491 29.817
N 22.497 22.629 32.312
C 23.613 21.936 32.016
C 24.911 22.678 32.399
H 25.57  22.126 33.06 
C 24.346 23.936 33.212
H 24.769 24.932 32.912
C 22.851 23.814 32.778
C 24.516 23.739 34.731
H 23.983 22.788 35.011
H 25.578 23.903 35.135
H 23.962 24.54  35.199
C 25.763 22.965 31.096
H 25.007 23.451 30.518
H 25.977 21.921 30.742
C 27.142 23.66  31.231
H 27.312 23.911 32.225
H 28.002 23.11  30.778
C 27.194 25.026 30.548
O 27.867 25.233 29.518
O 26.273 25.9   31.093
N 19.713 23.829 32.427
C 20.468 24.789 32.959
C 19.721 25.964 33.276
C 18.436 25.716 32.858
C 18.454 24.356 32.294
C 20.306 27.254 33.775
H 20.815 27.219 34.74 
H 20.915 27.604 32.939
H 19.519 27.93  33.982
C 17.196 26.505 32.962
H 16.406 26.43  32.166
C 16.968 27.441 33.936
H 17.594 27.548 34.829
H 16.079 28.018 33.892
N 18.513 21.553 31.047
C 17.402 22.37  31.075
C 16.328 21.654 30.418
C 16.76  20.382 30.191
C 18.121 20.366 30.488
C 14.927 22.265 30.277
H 14.514 22.605 31.249
H 15.025 23.064 29.538
H 14.256 21.511 29.816
C 16.044 19.234 29.714
H 15.167 19.514 29.066
H 16.691 18.706 28.985
C 15.665 18.242 30.822
H 15.385 17.307 30.387
H 16.434 18.08  31.606
H 14.708 18.576 31.284
N 21.077 20.31  31.079
C 20.394 19.246 30.527
C 21.242 18.151 30.253
C 22.496 18.663 30.607
C 22.378 19.987 31.081
C 20.848 16.776 29.774
H 21.747 16.15  29.962
H 20.104 16.297 30.431
H 20.618 16.799 28.708
C 23.936 18.357 30.655
O 24.525 17.335 30.337
C 24.664 19.594 31.254
H 25.417 19.823 30.589
C 25.212 19.229 32.598
O 24.519 19.03  33.586
O 26.574 18.998 32.59 
C 27.103 18.433 33.831
H 28.157 18.145 33.75 
H 27.121 19.238 34.581
H 26.457 17.611 34.109
C 26.064 27.186 30.362
H 25.958 26.928 29.301
H 26.913 27.909 30.458
C 24.841 27.896 30.819
H 25.03  28.343 31.77 
C 23.688 28.162 30.213
C 23.407 27.819 28.799
H 22.732 27.    28.751
H 22.853 28.657 28.259
H 24.288 27.684 28.132
C 22.644 28.896 30.969
H 22.747 28.705 32.   
H 21.705 28.521 30.721
C 22.594 30.422 30.602
H 21.713 30.596 29.966
H 23.467 30.807 30.092
C 22.354 31.444 31.772
H 22.16  30.947 32.765
H 21.4   31.896 31.437
C 23.456 32.54  31.872
H 23.758 33.051 30.986
C 24.723 31.927 32.502
H 24.57  31.75  33.581
H 25.    31.008 32.021
H 25.447 32.7   32.291
C 23.016 33.736 32.752
H 23.869 34.263 33.148
H 22.549 33.284 33.61 
C 22.158 34.728 31.959
H 21.107 34.498 32.093
H 22.369 34.711 30.909
C 22.216 36.225 32.459
H 23.129 36.389 33.04 
H 21.394 36.462 33.066
C 22.313 37.323 31.337
H 21.72  37.002 30.496
C 23.788 37.45  30.842
H 24.501 37.849 31.57 
H 24.201 36.5   30.485
H 23.682 38.246 29.965
C 21.65  38.567 31.986
H 22.26  38.722 32.88 
H 20.667 38.3   32.36 
C 21.539 39.828 31.015
H 20.445 40.008 30.826
H 22.109 39.768 30.075
C 22.045 41.065 31.802
H 22.8   41.458 31.061
H 22.474 40.845 32.802
C 21.082 42.299 31.912
H 20.643 42.378 30.944
C 21.737 43.64  32.278
H 20.925 44.431 32.259
H 22.135 43.633 33.295
H 22.51  43.947 31.582
C 19.973 42.038 32.891
H 20.413 41.792 33.904
H 19.245 42.822 33.019
H 19.333 41.191 32.604
