137

Mg 28.765 28.542 32.919
C 28.013 25.331 31.841
C 30.544 29.076 30.078
H 31.023 29.328 29.179
C 29.849 31.558 34.278
H 30.094 32.566 34.607
C 26.933 28.029 35.706
H 26.427 27.885 36.583
N 29.261 27.349 31.136
C 28.904 26.023 30.963
C 29.378 25.536 29.593
H 29.894 24.579 29.729
C 30.289 26.721 29.17 
H 29.983 27.002 28.113
C 30.003 27.826 30.154
C 31.771 26.449 29.083
H 32.208 26.365 30.082
H 31.959 25.44  28.568
H 32.259 27.306 28.539
C 28.109 25.325 28.621
H 27.697 26.308 28.425
H 27.307 24.775 29.183
C 28.253 24.434 27.377
H 27.686 24.819 26.502
H 29.281 24.342 27.061
C 27.7   23.049 27.504
O 28.33  22.017 27.283
O 26.35  22.936 27.82 
N 29.957 30.061 32.28 
C 30.516 30.087 31.039
C 31.321 31.303 30.893
C 31.073 32.091 32.043
C 30.277 31.22  32.952
C 32.114 31.634 29.649
H 31.681 32.357 29.048
H 33.066 31.943 29.983
H 32.449 30.844 28.973
C 31.48  33.562 32.318
H 31.2   33.967 33.309
C 32.154 34.415 31.502
H 32.333 34.304 30.432
H 32.398 35.371 31.861
N 28.561 29.537 34.756
C 29.059 30.813 35.082
C 28.564 31.218 36.454
C 27.497 30.257 36.687
C 27.645 29.204 35.711
C 28.952 32.525 37.213
H 28.31  33.368 36.77 
H 28.636 32.267 38.16 
H 29.995 32.748 37.315
C 26.542 30.205 37.825
H 25.527 29.922 37.584
H 26.908 29.485 38.526
C 26.243 31.537 38.581
H 26.971 31.557 39.394
H 26.261 32.43  37.937
H 25.16  31.601 38.925
N 27.669 27.003 33.7  
C 26.85  26.994 34.798
C 26.151 25.807 34.824
C 26.601 25.05  33.801
C 27.478 25.849 33.012
C 25.179 25.289 35.868
H 25.52  25.449 36.876
H 24.262 25.821 35.718
H 24.935 24.21  35.759
C 26.535 23.764 33.071
O 25.893 22.778 33.404
C 27.31  23.935 31.794
H 26.637 23.891 30.97 
C 28.269 22.789 31.73 
O 28.976 22.393 32.654
O 28.299 22.26  30.462
C 29.393 21.304 30.416
H 30.415 21.69  30.617
H 29.488 20.493 31.156
H 29.51  20.867 29.409
C 25.854 21.644 27.862
H 26.496 20.973 28.491
H 25.852 21.284 26.916
C 24.388 21.721 28.291
H 23.721 22.303 27.639
C 23.731 21.12  29.323
C 24.482 20.479 30.521
H 24.247 19.415 30.541
H 25.586 20.427 30.462
H 24.242 21.077 31.464
C 22.27  21.267 29.481
H 22.061 22.3   29.273
H 21.906 21.058 30.553
C 21.365 20.412 28.574
H 20.756 19.709 29.154
H 21.986 19.779 27.891
C 20.424 21.299 27.644
H 20.948 21.399 26.726
H 20.327 22.3   28.07 
C 19.099 20.752 27.376
H 19.306 19.653 27.2  
C 18.397 21.335 26.172
H 18.535 22.366 26.062
H 18.939 20.989 25.326
H 17.354 21.089 26.046
C 18.139 20.92  28.579
H 18.501 20.374 29.416
H 17.259 20.431 28.317
C 17.654 22.341 29.014
H 16.568 22.391 28.787
H 18.251 23.    28.351
C 17.872 22.743 30.462
H 18.71  23.393 30.281
H 18.285 22.007 31.128
C 16.767 23.646 31.001
H 16.366 24.235 30.11 
C 17.384 24.784 31.948
H 17.718 24.237 32.844
H 18.328 25.251 31.557
H 16.722 25.673 32.14 
C 15.632 22.851 31.613
H 16.016 22.26  32.493
H 15.374 22.006 30.921
C 14.419 23.697 32.153
H 13.663 23.369 31.461
H 14.605 24.755 32.107
C 14.102 23.298 33.553
H 14.972 23.002 34.156
H 13.495 22.409 33.505
C 13.382 24.507 34.266
H 13.945 25.398 34.118
C 13.443 24.381 35.86 
H 12.966 25.316 36.281
H 13.031 23.42  36.056
H 14.494 24.365 36.131
C 11.906 24.628 33.683
H 11.263 23.823 34.168
H 11.481 25.619 34.014
H 11.789 24.613 32.615
