137

Mg 27.034 32.595 38.661
C 24.913 30.446 40.431
C 24.444 34.679 38.079
H 23.64  35.315 37.814
C 29.146 34.87  37.125
H 29.929 35.595 36.689
C 29.702 30.535 39.461
H 30.546 29.99  39.636
N 24.913 32.545 39.173
C 24.217 31.564 39.852
C 22.693 31.937 40.   
H 22.171 31.112 39.515
C 22.617 33.276 39.095
H 22.204 34.122 39.655
C 24.074 33.538 38.741
C 21.734 32.991 37.818
H 21.522 33.852 37.202
H 22.172 32.24  37.238
H 20.715 32.606 38.12 
C 22.136 32.084 41.429
H 22.392 33.11  41.707
H 22.66  31.368 42.12 
C 20.654 31.749 41.651
H 20.299 31.259 40.809
H 20.597 31.209 42.537
C 19.675 32.893 41.888
O 19.005 33.072 42.866
O 19.754 33.736 40.833
N 26.858 34.512 37.865
C 25.694 35.189 37.629
C 25.869 36.384 36.875
C 27.27  36.492 36.664
C 27.833 35.245 37.234
C 24.82  37.304 36.554
H 25.281 38.034 35.916
H 24.065 36.842 35.972
H 24.479 37.746 37.512
C 27.905 37.509 35.789
H 27.612 38.606 35.881
C 28.831 37.176 34.834
H 29.137 36.179 34.662
H 29.285 37.876 34.155
N 29.09  32.682 38.3  
C 29.769 33.691 37.669
C 31.242 33.39  37.658
C 31.333 32.246 38.382
C 30.008 31.76  38.752
C 32.318 34.171 36.951
H 31.825 34.972 36.356
H 33.06  34.515 37.695
H 32.863 33.438 36.286
C 32.542 31.386 38.717
H 32.439 30.289 38.538
H 33.37  31.778 38.162
C 32.905 31.56  40.27 
H 33.49  32.476 40.423
H 32.038 31.478 40.918
H 33.7   30.812 40.547
N 27.287 30.807 39.728
C 28.443 30.081 39.923
C 28.114 28.919 40.704
C 26.789 29.047 41.039
C 26.3   30.193 40.353
C 28.951 27.767 41.224
H 29.849 27.67  40.619
H 29.22  28.018 42.26 
H 28.429 26.802 41.287
C 25.668 28.454 41.788
O 25.657 27.515 42.534
C 24.377 29.27  41.338
H 23.812 29.617 42.225
C 23.522 28.295 40.635
O 23.92  27.394 39.913
O 22.227 28.472 41.1  
C 21.383 27.404 40.526
H 21.068 27.705 39.497
H 21.813 26.456 40.448
H 20.472 27.402 41.106
C 18.913 34.965 40.975
H 19.323 35.66  41.779
H 17.891 34.565 41.183
C 18.912 35.666 39.602
H 18.459 35.138 38.726
C 19.574 36.849 39.287
C 20.432 37.671 40.334
H 21.397 37.348 40.661
H 20.448 38.711 39.944
H 19.79  37.707 41.311
C 19.621 37.291 37.825
H 19.263 36.477 37.197
H 20.648 37.466 37.546
C 18.721 38.535 37.522
H 19.281 38.979 36.73 
H 18.668 39.267 38.349
C 17.287 38.23  37.042
H 16.717 38.589 37.855
H 17.044 37.211 36.965
C 16.765 38.915 35.757
H 17.272 39.906 35.811
C 15.195 39.182 35.901
H 15.163 39.943 36.682
H 14.74  39.492 34.99 
H 14.659 38.356 36.322
C 17.114 38.165 34.419
H 18.205 38.054 34.442
H 16.82  38.796 33.528
C 16.44  36.861 34.207
H 15.596 37.047 33.477
H 16.033 36.443 35.179
C 17.372 35.851 33.654
H 17.877 35.512 34.522
H 18.108 36.326 32.961
C 16.835 34.564 32.887
H 16.271 33.91  33.487
C 17.999 33.63  32.595
H 17.703 32.767 32.082
H 18.735 34.228 32.09 
H 18.478 33.229 33.496
C 16.05  34.959 31.606
H 16.848 35.456 31.022
H 15.322 35.659 31.9  
C 15.415 33.869 30.725
H 14.356 34.115 30.633
H 15.322 32.944 31.242
C 16.097 33.655 29.331
H 16.162 32.547 29.203
H 17.075 34.079 29.279
C 15.253 34.156 28.096
H 14.26  33.887 28.327
C 15.74  33.524 26.718
H 15.231 33.851 25.91 
H 16.826 33.76  26.514
H 15.69  32.397 26.766
C 15.318 35.675 27.964
H 16.322 35.957 27.582
H 14.562 35.995 27.154
H 15.128 36.118 28.98 
