137

Mg 25.618 28.618 41.591
C 23.692 25.717 41.155
C 27.611 27.609 38.901
H 28.299 27.229 38.113
C 27.755 31.121 42.213
H 28.482 31.821 42.537
C 23.717 29.47  44.38 
H 23.227 29.671 45.302
N 25.677 26.896 40.237
C 24.715 25.902 40.175
C 25.052 24.97  39.047
H 25.437 24.019 39.408
C 26.282 25.552 38.298
H 26.139 25.889 37.244
C 26.505 26.796 39.156
C 27.458 24.557 38.148
H 27.782 24.264 39.192
H 27.101 23.744 37.586
H 28.408 24.956 37.704
C 23.857 24.706 38.158
H 23.731 25.676 37.668
H 22.99  24.555 38.811
C 23.956 23.592 37.081
H 24.778 22.927 37.317
H 23.007 23.05  37.136
C 24.146 24.096 35.674
O 25.228 24.482 35.198
O 22.919 24.09  34.946
N 27.337 29.409 40.631
C 28.009 28.834 39.507
C 29.188 29.593 39.236
C 29.125 30.674 40.099
C 28.036 30.429 41.04 
C 30.251 29.226 38.196
H 29.737 28.774 37.342
H 30.733 30.159 37.832
H 30.893 28.462 38.659
C 30.232 31.62  40.221
H 31.239 31.363 39.782
C 30.021 32.827 40.769
H 28.998 33.284 40.977
H 30.776 33.637 40.653
N 25.668 30.131 42.986
C 26.675 30.987 43.102
C 26.529 31.827 44.326
C 25.349 31.394 44.952
C 24.871 30.271 44.138
C 27.46  32.976 44.666
H 27.448 33.566 43.837
H 27.274 33.625 45.528
H 28.509 32.671 44.955
C 24.764 31.782 46.299
H 24.486 30.805 46.767
H 25.53  32.291 46.879
C 23.489 32.669 46.228
H 23.829 33.651 45.846
H 22.837 32.299 45.388
H 22.934 32.762 47.192
N 24.175 27.826 42.639
C 23.412 28.277 43.759
C 22.38  27.271 44.139
C 22.455 26.306 43.131
C 23.506 26.637 42.243
C 21.336 27.315 45.272
H 20.918 26.302 45.373
H 21.741 27.507 46.232
H 20.484 28.009 45.03 
C 21.854 25.054 42.657
O 20.912 24.368 43.088
C 22.659 24.65  41.33 
H 21.954 24.615 40.496
C 23.203 23.327 41.616
O 23.982 23.003 42.514
O 22.737 22.476 40.68 
C 23.475 21.254 40.701
H 23.334 20.8   39.722
H 24.572 21.391 40.914
H 23.061 20.626 41.52 
C 23.024 24.577 33.589
H 23.825 24.104 32.991
H 23.301 25.603 33.742
C 21.715 24.356 32.782
H 21.353 23.334 32.804
C 20.973 25.204 32.126
C 21.275 26.706 31.995
H 20.502 27.167 32.619
H 22.283 26.887 32.359
H 21.293 26.969 30.923
C 20.005 24.69  31.067
H 20.165 23.64  30.939
H 20.326 25.067 30.159
C 18.588 25.065 31.25 
H 18.113 25.35  30.344
H 18.679 25.953 31.829
C 17.846 24.133 32.193
H 18.303 23.212 32.25 
H 16.849 23.851 31.751
C 17.532 24.64  33.648
H 18.487 25.093 34.059
C 17.07  23.496 34.632
H 17.008 23.66  35.706
H 16.077 23.166 34.365
H 17.604 22.549 34.434
C 16.601 25.856 33.883
H 17.035 26.726 33.392
H 16.725 26.139 34.914
C 15.073 25.745 33.558
H 14.693 26.259 34.388
H 14.717 24.726 33.521
C 14.698 26.531 32.296
H 15.607 26.613 31.643
H 14.434 27.541 32.653
C 13.567 25.877 31.486
H 13.833 24.839 31.277
C 13.452 26.542 30.122
H 13.294 27.625 30.17 
H 14.431 26.292 29.687
H 12.651 26.079 29.566
C 12.091 25.942 32.259
H 11.801 26.981 32.282
H 12.213 25.524 33.23 
C 10.964 25.102 31.669
H 11.461 24.374 31.05 
H 10.284 25.805 31.092
C  9.918 24.533 32.677
H  8.969 24.989 32.336
H 10.104 24.869 33.672
C  9.642 23.004 32.798
H 10.554 22.617 33.264
C  9.225 22.261 31.532
H 10.021 22.474 30.746
H  9.366 21.23  31.681
H  8.219 22.412 31.14 
C  8.515 22.912 33.917
H  8.276 21.921 34.221
H  8.87  23.284 34.809
H  7.621 23.454 33.584
