137

Mg 23.856 18.139 27.968
C 24.237 16.003 25.204
C 26.602 19.782 26.873
H 27.529 20.272 26.664
C 23.679 19.997 30.698
H 23.332 20.635 31.558
C 21.247 16.132 29.011
H 20.707 15.37  29.5  
N 25.337 17.817 26.291
C 25.149 17.03  25.224
C 26.126 17.373 24.168
H 26.733 16.509 23.971
C 27.003 18.531 24.775
H 26.96  19.436 24.144
C 26.268 18.74  26.051
C 28.482 18.121 24.958
H 28.83  17.729 23.978
H 29.002 19.041 25.273
H 28.512 17.313 25.686
C 25.417 17.741 22.826
H 24.577 18.385 23.073
H 24.949 16.801 22.376
C 26.267 18.459 21.655
H 27.344 18.356 21.897
H 26.247 17.867 20.725
C 25.975 19.865 21.157
O 26.762 20.408 20.386
O 24.889 20.513 21.758
N 25.    19.649 28.661
C 26.081 20.195 28.089
C 26.639 21.149 28.973
C 25.84  21.22  30.092
C 24.801 20.29  29.889
C 27.931 21.868 28.697
H 27.96  22.811 29.266
H 28.841 21.373 28.954
H 27.919 22.177 27.596
C 25.907 22.041 31.331
H 24.928 22.163 31.793
C 27.009 22.476 31.97 
H 28.09  22.365 31.599
H 26.88  23.035 32.886
N 22.557 18.207 29.514
C 22.682 19.125 30.554
C 21.603 18.848 31.493
C 20.883 17.739 31.032
C 21.483 17.36  29.769
C 21.293 19.684 32.741
H 21.854 19.105 33.535
H 21.627 20.719 32.79 
H 20.148 19.643 32.88 
C 19.76  17.001 31.665
H 20.085 15.941 31.824
H 19.576 17.4   32.635
C 18.461 16.944 30.841
H 18.662 16.403 30.008
H 17.667 16.349 31.231
H 18.243 17.968 30.516
N 22.849 16.524 27.296
C 21.822 15.801 27.861
C 21.554 14.691 27.031
C 22.442 14.748 25.952
C 23.205 15.831 26.17 
C 20.643 13.578 27.479
H 20.811 13.428 28.562
H 19.673 13.855 27.166
H 20.946 12.697 27.052
C 22.813 14.071 24.742
O 22.455 13.022 24.259
C 23.89  14.941 24.218
H 23.601 15.263 23.294
C 25.046 14.13  23.957
O 25.96  13.87  24.755
O 24.978 13.541 22.748
C 26.061 12.642 22.469
H 26.402 11.893 23.271
H 25.602 12.133 21.721
H 26.954 13.104 22.134
C 24.539 21.785 21.128
H 24.107 21.617 20.2  
H 25.44  22.405 21.122
C 23.597 22.476 22.037
H 24.067 22.789 22.934
C 22.368 22.839 21.686
C 21.613 22.559 20.374
H 21.1   21.586 20.623
H 20.792 23.237 20.059
H 22.192 22.452 19.495
C 21.547 23.535 22.744
H 21.721 23.126 23.765
H 20.43  23.303 22.614
C 21.52  25.074 22.675
H 20.554 25.447 22.883
H 21.74  25.323 21.658
C 22.672 25.627 23.595
H 23.021 24.715 24.111
H 22.151 26.205 24.392
C 23.957 26.339 22.896
H 23.528 26.818 21.947
C 25.096 25.309 22.676
H 25.184 24.797 23.615
H 24.812 24.671 21.819
H 26.052 25.805 22.507
C 24.453 27.543 23.667
H 25.316 28.004 23.185
H 24.731 27.115 24.629
C 23.487 28.681 23.912
H 22.53  28.452 23.634
H 23.775 29.499 23.27 
C 23.403 29.255 25.36 
H 24.051 30.153 25.339
H 23.8   28.468 26.03 
C 21.924 29.566 25.745
H 21.284 28.694 25.62 
C 21.452 30.89  25.116
H 21.651 30.974 24.003
H 20.409 31.072 25.293
H 21.889 31.815 25.57 
C 21.946 29.856 27.293
H 22.688 30.693 27.469
H 22.357 28.938 27.721
C 20.59  30.139 27.9  
H 19.831 30.369 27.146
H 20.726 31.083 28.482
C 20.015 28.946 28.723
H 20.382 27.965 28.355
H 18.924 28.854 28.493
C 20.122 29.291 30.233
H 21.197 29.565 30.34 
C 20.08  28.08  31.127
H 19.856 28.347 32.204
H 19.22  27.511 30.891
H 20.981 27.541 31.116
C 19.169 30.44  30.674
H 18.082 30.25  30.373
H 19.257 30.485 31.759
H 19.333 31.432 30.197
