137

Mg 29.032 27.932 32.372
C 26.662 26.391 30.281
C 31.382 27.334 29.877
H 32.132 27.205 29.222
C 31.269 29.725 34.167
H 31.95  30.301 34.597
C 26.582 28.465 34.697
H 25.91  28.48  35.538
N 28.96  27.078 30.234
C 27.904 26.484 29.658
C 28.265 26.004 28.235
H 27.977 24.933 28.166
C 29.811 26.251 28.24 
H 30.049 26.894 27.434
C 30.124 26.919 29.503
C 30.657 24.907 27.958
H 30.412 24.056 28.583
H 30.457 24.61  26.946
H 31.755 25.114 28.063
C 27.494 26.799 27.168
H 27.577 27.803 27.59 
H 26.428 26.526 27.192
C 28.032 26.583 25.623
H 28.611 27.329 25.366
H 28.539 25.635 25.644
C 27.008 26.468 24.517
O 27.163 26.972 23.426
O 25.773 26.031 24.866
N 30.945 28.454 32.078
C 31.734 27.989 31.08 
C 33.111 28.5   31.321
C 33.107 29.133 32.575
C 31.71  29.163 33.002
C 34.199 28.314 30.271
H 33.905 28.635 29.267
H 35.075 28.878 30.536
H 34.476 27.267 30.251
C 34.242 29.749 33.315
H 34.013 30.493 34.008
C 35.546 29.371 33.205
H 35.865 28.572 32.494
H 36.344 29.843 33.75 
N 28.993 28.849 34.177
C 29.991 29.587 34.756
C 29.623 30.058 36.07 
C 28.247 29.742 36.144
C 27.856 28.94  34.955
C 30.421 31.051 36.894
H 31.387 30.649 37.035
H 30.48  32.021 36.383
H 29.938 31.283 37.824
C 27.335 30.222 37.253
H 26.685 29.402 37.646
H 28.071 30.629 38.012
C 26.511 31.392 36.788
H 25.918 31.02  36.007
H 25.916 31.602 37.666
H 27.21  32.204 36.566
N 27.072 27.506 32.589
C 26.185 27.676 33.631
C 24.861 27.093 33.281
C 24.998 26.73  31.981
C 26.347 26.921 31.594
C 23.643 27.101 34.2  
H 23.643 26.331 34.917
H 23.533 28.079 34.667
H 22.686 26.969 33.642
C 24.256 26.192 30.875
O 23.083 26.009 30.734
C 25.299 26.026 29.769
H 24.951 26.652 28.959
C 25.07  24.538 29.367
O 25.165 23.562 30.093
O 25.112 24.525 28.011
C 25.282 23.214 27.335
H 25.334 23.423 26.228
H 26.22  22.719 27.749
H 24.408 22.569 27.533
C 24.587 26.31  24.024
H 24.518 25.459 23.286
H 24.618 27.284 23.615
C 23.508 26.399 25.064
H 23.581 27.319 25.63 
C 22.696 25.43  25.507
C 22.712 24.029 24.916
H 23.578 23.961 24.343
H 22.876 23.308 25.7  
H 21.978 23.816 24.214
C 21.893 25.55  26.782
H 22.115 26.545 27.254
H 22.141 24.813 27.54 
C 20.377 25.644 26.559
H 20.237 26.012 25.549
H 20.036 26.377 27.274
C 19.692 24.293 26.959
H 19.792 24.303 28.047
H 20.147 23.433 26.477
C 18.156 24.046 26.605
H 17.982 24.226 25.526
C 17.144 24.979 27.259
H 16.16  24.813 26.96 
H 17.135 24.882 28.341
H 17.427 26.006 27.002
C 17.667 22.574 26.829
H 18.271 21.963 26.178
H 16.647 22.469 26.535
C 17.694 22.166 28.353
H 18.129 22.819 29.111
H 18.359 21.313 28.476
C 16.328 21.865 28.951
H 15.66  21.607 28.149
H 15.976 22.789 29.389
C 16.285 20.788 30.005
H 16.587 19.784 29.612
C 14.819 20.561 30.376
H 14.661 19.666 31.001
H 14.556 21.421 30.92 
H 14.082 20.398 29.584
C 17.112 21.195 31.219
H 16.595 21.962 31.759
H 18.043 21.599 30.893
C 17.589 19.997 32.105
H 18.658 20.114 32.354
H 17.446 19.029 31.562
C 16.929 20.132 33.444
H 16.08  20.827 33.424
H 17.562 20.492 34.267
C 16.413 18.698 33.969
H 16.202 18.147 33.077
C 15.089 18.842 34.679
H 14.76  17.889 35.084
H 15.315 19.667 35.361
H 14.342 19.129 33.979
C 17.484 17.923 34.789
H 17.592 18.368 35.811
H 16.963 16.998 34.923
H 18.417 17.92  34.187
