137

Mg 22.717 24.343 38.142
C 20.427 21.965 39.064
C 23.391 22.632 35.346
H 23.575 22.136 34.383
C 24.466 27.047 37.045
H 25.04  27.88  36.674
C 22.093 25.996 41.141
H 22.061 26.3   42.237
N 22.034 22.532 37.355
C 21.048 21.713 37.84 
C 20.653 20.703 36.824
H 20.487 19.685 37.248
C 21.85  20.727 35.836
H 21.506 20.838 34.852
C 22.528 22.03  36.245
C 22.866 19.561 36.021
H 23.281 19.695 37.027
H 22.36  18.638 35.826
H 23.645 19.655 35.286
C 19.396 21.1   36.138
H 19.492 22.103 35.715
H 18.693 21.362 36.931
C 18.666 20.203 35.113
H 19.377 19.45  34.846
H 17.805 19.737 35.636
C 17.954 20.737 33.874
O 17.705 21.846 33.509
O 17.403 19.627 33.227
N 23.615 24.821 36.434
C 23.756 24.012 35.343
C 24.444 24.698 34.252
C 24.923 25.846 34.867
C 24.34  25.912 36.205
C 24.906 24.111 32.876
H 24.118 23.44  32.529
H 24.899 24.905 32.171
H 25.872 23.593 32.824
C 25.861 26.917 34.39 
H 25.423 27.921 34.57 
C 26.991 26.735 33.687
H 27.295 25.654 33.456
H 27.628 27.551 33.264
N 23.116 26.219 38.947
C 23.839 27.205 38.259
C 23.986 28.421 39.136
C 23.405 28.033 40.394
C 22.789 26.697 40.188
C 24.804 29.632 38.783
H 25.735 29.688 39.363
H 25.001 29.806 37.762
H 24.251 30.53  39.083
C 23.252 28.912 41.662
H 23.549 28.333 42.549
H 23.898 29.759 41.544
C 21.848 29.393 41.971
H 21.119 28.534 41.934
H 21.87  29.878 42.934
H 21.53  30.179 41.278
N 21.527 24.062 39.838
C 21.43  24.818 40.952
C 20.409 24.153 41.876
C 19.905 23.077 41.094
C 20.688 23.037 39.958
C 19.836 24.685 43.155
H 19.599 23.814 43.807
H 20.463 25.356 43.711
H 18.962 25.297 43.052
C 18.924 22.018 41.041
O 17.858 21.822 41.686
C 19.277 21.206 39.687
H 18.369 21.278 39.112
C 19.687 19.864 40.149
O 20.512 19.605 40.997
O 19.024 18.892 39.36 
C 19.272 17.507 39.788
H 18.819 16.857 39.011
H 20.32  17.402 39.813
H 18.928 17.218 40.762
C 16.866 20.041 31.892
H 17.677 20.502 31.31 
H 16.1   20.848 32.083
C 16.337 18.85  31.104
H 17.039 17.975 30.981
C 15.19  18.757 30.432
C 14.263 19.915 30.235
H 13.521 19.915 31.072
H 14.667 20.86  30.128
H 13.739 19.735 29.339
C 14.965 17.475 29.681
H 15.892 16.962 29.51 
H 14.421 17.665 28.823
C 14.239 16.452 30.581
H 13.678 16.901 31.407
H 15.044 15.787 30.917
C 13.285 15.535 29.792
H 13.732 14.515 29.831
H 13.261 15.803 28.673
C 11.84  15.43  30.337
H 11.806 15.133 31.399
C 11.023 14.266 29.74 
H 10.053 14.347 30.033
H 11.033 14.471 28.71 
H 11.538 13.354 29.931
C 11.161 16.811 30.184
H 11.707 17.63  30.69 
H 10.251 16.752 30.871
C 10.928 17.409 28.844
H 11.34  16.744 28.05 
H 11.487 18.299 28.702
C  9.424 17.546 28.495
H  8.807 17.095 29.228
H  9.199 16.964 27.527
C  8.886 18.993 28.312
H  9.349 19.526 27.459
C  9.161 19.815 29.55 
H  9.121 19.199 30.449
H 10.139 20.255 29.47 
H  8.512 20.655 29.772
C  7.36  19.045 27.987
H  6.81  18.566 28.771
H  7.366 18.332 27.22 
C  6.814 20.408 27.559
H  7.554 21.149 27.646
H  6.05  20.659 28.241
C  6.254 20.281 26.173
H  5.22  20.702 26.242
H  6.1   19.18  25.931
C  7.075 20.972 25.081
H  7.335 21.921 25.386
C  6.216 21.084 23.821
H  5.882 20.112 23.421
H  5.326 21.616 23.981
H  6.873 21.619 23.144
C  8.513 20.42  24.678
H  9.157 21.045 24.097
H  9.022 20.333 25.617
H  8.391 19.433 24.169
