137

Mg 23.355 27.989 38.784
C 21.368 25.466 40.105
C 24.36  25.838 36.287
H 24.734 25.114 35.541
C 24.991 30.459 37.347
H 25.399 31.326 36.883
C 22.396 30.048 41.429
H 22.115 30.759 42.281
N 22.973 25.85  38.279
C 22.059 25.049 38.939
C 22.013 23.633 38.243
H 22.187 22.859 38.917
C 23.196 23.75  37.233
H 22.812 23.523 36.239
C 23.472 25.25  37.253
C 24.31  22.76  37.557
H 24.645 23.133 38.549
H 23.942 21.698 37.632
H 25.094 22.708 36.809
C 20.683 23.505 37.444
H 20.662 24.254 36.679
H 19.903 23.717 38.212
C 20.396 22.14  36.79 
H 21.052 21.335 37.183
H 19.443 21.741 37.068
C 20.421 22.105 35.222
O 21.293 22.641 34.536
O 19.273 21.564 34.717
N 24.465 28.177 37.073
C 24.799 27.15  36.234
C 25.591 27.72  35.099
C 25.641 29.103 35.361
C 25.084 29.3   36.649
C 26.199 26.963 33.972
H 26.814 26.214 34.378
H 25.429 26.481 33.252
H 26.807 27.596 33.377
C 26.22  30.232 34.53 
H 26.631 31.078 35.04 
C 26.007 30.286 33.216
H 25.409 29.497 32.811
H 26.304 31.179 32.617
N 23.812 29.876 39.401
C 24.359 30.803 38.554
C 24.286 32.104 39.134
C 23.564 31.933 40.311
C 23.206 30.577 40.403
C 24.776 33.405 38.545
H 25.892 33.469 38.68 
H 24.667 33.339 37.463
H 24.269 34.258 38.935
C 23.103 33.039 41.253
H 23.169 32.707 42.306
H 23.765 33.93  41.084
C 21.652 33.474 41.215
H 21.424 34.157 42.047
H 21.564 33.958 40.217
H 20.917 32.626 41.254
N 22.284 27.805 40.498
C 21.885 28.711 41.471
C 20.938 28.142 42.375
C 20.73  26.894 41.857
C 21.522 26.709 40.77 
C 20.094 28.811 43.537
H 20.631 29.581 43.971
H 19.097 29.194 43.184
H 20.051 28.077 44.316
C 19.909 25.715 42.044
O 18.958 25.552 42.838
C 20.342 24.678 40.888
H 19.51  24.49  40.343
C 20.836 23.508 41.613
O 21.994 23.313 41.939
O 19.873 22.588 41.864
C 20.197 21.124 42.15 
H 20.96  21.145 42.856
H 19.307 20.583 42.505
H 20.634 20.594 41.31 
C 19.144 21.559 33.252
H 19.969 21.023 32.842
H 19.15  22.619 32.919
C 18.005 20.785 32.668
H 17.883 19.769 32.98 
C 17.21  21.108 31.607
C 17.067 22.458 30.933
H 16.094 22.471 30.4  
H 17.177 23.198 31.728
H 17.818 22.425 30.149
C 16.312 20.108 30.906
H 16.645 19.107 31.183
H 16.627 20.189 29.865
C 14.735 20.149 31.091
H 14.428 20.847 31.894
H 14.468 19.127 31.428
C 13.855 20.507 29.816
H 13.802 21.577 29.751
H 12.819 20.234 30.048
C 14.314 19.944 28.444
H 15.181 20.389 28.086
C 13.199 20.408 27.346
H 12.24  19.892 27.453
H 12.919 21.39  27.713
H 13.535 20.45  26.306
C 14.515 18.472 28.502
H 15.25  18.142 29.205
H 14.803 18.141 27.531
C 13.275 17.704 28.871
H 12.62  17.788 28.015
H 12.651 18.161 29.652
C 13.53  16.166 29.164
H 13.108 15.883 30.145
H 14.56  16.011 29.184
C 12.92  15.294 28.015
H 13.045 15.919 27.13 
C 11.441 14.972 28.164
H 11.282 14.722 29.226
H 10.789 15.868 28.079
H 11.143 14.19  27.507
C 13.754 14.025 27.773
H 13.208 13.292 27.229
H 13.976 13.425 28.669
C 15.162 14.222 27.136
H 15.911 13.499 27.565
H 15.634 15.182 27.313
C 15.159 14.09  25.608
H 15.844 14.793 25.222
H 14.12  14.269 25.191
C 15.809 12.768 25.167
H 16.85  12.797 25.577
C 16.001 12.871 23.657
H 14.981 12.776 23.17 
H 16.506 13.82  23.359
H 16.557 12.014 23.244
C 15.064 11.497 25.53 
H 14.697 11.629 26.581
H 14.21  11.249 24.914
H 15.752 10.666 25.552
