137

Mg 34.893 35.73  35.165
C 32.142 35.247 33.129
C 35.633 32.296 34.649
H 35.964 31.257 34.616
C 37.602 35.998 37.224
H 38.511 36.06  37.758
C 33.843 38.787 36.01 
H 33.605 39.775 36.3  
N 34.073 34.001 33.945
C 32.933 34.05  33.148
C 32.6   32.688 32.404
H 31.601 32.272 32.553
C 33.599 31.746 33.167
H 34.245 31.226 32.513
C 34.525 32.739 33.908
C 32.91  30.766 34.127
H 32.602 31.344 34.986
H 32.113 30.28  33.623
H 33.623 30.065 34.568
C 32.822 32.834 30.845
H 33.837 33.28  30.749
H 32.231 33.628 30.458
C 32.631 31.595 29.953
H 33.552 31.492 29.463
H 32.341 30.665 30.484
C 31.602 31.612 28.826
O 31.867 31.667 27.629
O 30.358 31.715 29.3  
N 36.405 34.394 35.786
C 36.472 33.028 35.533
C 37.519 32.41  36.293
C 38.099 33.455 37.052
C 37.389 34.681 36.657
C 37.83  30.913 36.45 
H 38.855 30.804 36.042
H 37.916 30.683 37.511
H 37.093 30.23  36.025
C 39.207 33.36  38.023
H 39.188 33.992 38.899
C 40.313 32.561 37.892
H 40.342 31.889 37.053
H 41.045 32.348 38.712
N 35.581 37.143 36.479
C 36.781 37.117 37.158
C 37.011 38.504 37.744
C 35.954 39.291 37.304
C 35.069 38.411 36.606
C 38.235 38.855 38.49 
H 37.958 39.611 39.292
H 38.535 37.998 38.991
H 38.977 39.237 37.834
C 35.837 40.8   37.524
H 34.769 40.922 37.625
H 36.339 41.101 38.422
C 36.195 41.567 36.194
H 35.368 41.44  35.409
H 36.334 42.609 36.474
H 37.186 41.221 35.905
N 33.282 36.775 34.792
C 33.006 38.028 35.165
C 31.919 38.565 34.388
C 31.456 37.466 33.619
C 32.336 36.409 33.926
C 31.508 40.014 34.24 
H 30.652 40.166 33.581
H 31.188 40.424 35.192
H 32.38  40.586 33.948
C 30.441 36.991 32.663
O 29.552 37.618 32.089
C 30.761 35.5   32.404
H 30.794 35.292 31.343
C 29.641 34.821 33.145
O 29.698 34.571 34.347
O 28.74  34.279 32.257
C 27.743 33.505 32.97 
H 26.919 33.043 32.301
H 28.29  32.63  33.357
H 27.297 34.083 33.797
C 29.356 32.012 28.282
H 29.414 31.203 27.607
H 29.477 32.901 27.715
C 28.008 31.998 28.979
H 27.864 32.813 29.755
C 27.01  31.103 28.855
C 26.952 29.98  27.825
H 27.263 29.056 28.19 
H 25.901 29.845 27.467
H 27.508 30.215 26.936
C 25.948 31.095 29.943
H 26.228 31.832 30.701
H 25.826 30.072 30.329
C 24.592 31.561 29.43 
H 24.516 31.64  28.368
H 24.506 32.562 29.697
C 23.432 30.677 29.874
H 22.461 31.205 29.837
H 23.592 30.498 30.978
C 23.328 29.273 29.095
H 24.283 28.889 28.981
C 22.692 29.372 27.711
H 22.584 28.37  27.304
H 21.651 29.792 27.809
H 23.38  29.963 26.993
C 22.505 28.207 29.895
H 23.126 27.852 30.67 
H 22.322 27.315 29.298
C 21.161 28.73  30.468
H 20.363 27.962 30.444
H 20.852 29.61  29.852
C 21.3   29.158 31.954
H 21.269 30.249 31.977
H 22.192 28.786 32.332
C 20.295 28.666 33.004
H 20.206 27.595 32.897
C 18.867 29.23  32.568
H 18.006 29.046 33.214
H 18.888 30.278 32.349
H 18.614 28.755 31.595
C 20.79  29.03  34.422
H 19.942 28.941 35.047
H 20.95  30.145 34.471
C 22.049 28.334 34.985
H 22.771 29.132 35.088
H 22.347 27.633 34.216
C 21.784 27.604 36.354
H 20.764 27.69  36.55 
H 22.275 28.225 37.141
C 22.189 26.157 36.481
H 23.141 25.898 36.068
C 21.261 25.212 35.697
H 21.714 24.214 35.54 
H 20.335 25.094 36.286
H 20.978 25.555 34.741
C 22.408 25.581 37.883
H 21.39  25.477 38.228
H 22.864 24.59  37.958
H 22.964 26.267 38.418
