137

Mg 19.22  25.884 27.155
C 22.658 25.487 26.929
C 19.747 28.089 29.87 
H 19.766 28.727 30.741
C 15.961 26.223 27.479
H 14.89  26.428 27.393
C 18.828 23.79  24.428
H 18.744 22.982 23.698
N 21.051 26.742 28.182
C 22.323 26.43  27.878
C 23.291 27.069 28.944
H 23.811 26.232 29.466
C 22.308 27.821 29.917
H 22.58  28.869 29.74 
C 20.918 27.565 29.274
C 22.441 27.472 31.429
H 23.486 27.534 31.768
H 21.798 28.059 32.104
H 21.953 26.488 31.479
C 24.451 27.95  28.397
H 23.953 28.801 27.951
H 25.001 27.369 27.708
C 25.532 28.45  29.398
H 25.428 27.891 30.347
H 26.45  27.939 29.013
C 25.752 29.928 29.683
O 26.682 30.654 29.364
O 24.648 30.378 30.303
N 18.06  27.03  28.383
C 18.432 27.851 29.436
C 17.195 28.371 30.038
C 16.157 27.861 29.323
C 16.679 27.004 28.349
C 17.108 29.236 31.266
H 17.069 30.277 30.973
H 16.169 29.113 31.807
H 17.82  29.005 32.001
C 14.758 28.106 29.611
H 14.402 27.987 30.577
C 13.821 28.467 28.702
H 14.04  28.594 27.683
H 12.813 28.742 28.928
N 17.603 25.14  26.157
C 16.301 25.328 26.457
C 15.411 24.502 25.544
C 16.277 23.967 24.59 
C 17.6   24.299 25.025
C 13.92  24.247 25.761
H 13.489 23.454 25.189
H 13.757 24.031 26.803
H 13.427 25.156 25.42 
C 16.014 22.905 23.561
H 16.581 21.979 23.785
H 14.946 22.697 23.535
C 16.436 23.391 22.243
H 15.694 24.133 21.916
H 17.399 23.905 22.24 
H 16.408 22.617 21.521
N 20.328 24.86  25.854
C 20.126 23.888 24.944
C 21.254 23.122 24.535
C 22.271 23.793 25.219
C 21.71  24.8   26.054
C 21.427 22.1   23.501
H 22.329 21.529 23.775
H 20.612 21.391 23.46 
H 21.568 22.477 22.512
C 23.703 23.891 25.378
O 24.557 23.285 24.726
C 24.018 24.886 26.57 
H 24.663 25.578 26.109
C 24.585 24.182 27.626
O 24.072 23.195 28.183
O 25.854 24.683 27.939
C 26.556 23.894 28.915
H 26.022 23.463 29.719
H 27.118 23.134 28.385
H 27.227 24.575 29.412
C 24.654 31.72  30.767
H 25.587 32.189 31.126
H 24.033 31.731 31.65 
C 23.968 32.555 29.658
H 23.112 32.004 29.099
C 24.178 33.853 29.232
C 25.418 34.597 29.615
H 26.25  34.01  29.231
H 25.419 35.531 29.085
H 25.481 34.796 30.772
C 23.38  34.431 28.041
H 22.877 33.651 27.503
H 23.988 34.908 27.283
C 22.294 35.382 28.423
H 22.092 35.262 29.522
H 21.268 35.051 28.022
C 22.534 36.866 28.096
H 22.279 36.977 26.99 
H 23.601 37.063 28.245
C 21.71  37.824 29.004
H 22.071 37.69  30.004
C 20.247 37.383 29.132
H 19.807 37.404 28.101
H 20.22  36.404 29.578
H 19.647 38.098 29.71 
C 21.723 39.355 28.675
H 20.999 39.716 29.299
H 21.489 39.404 27.562
C 23.121 39.961 28.895
H 23.876 39.469 28.312
H 23.477 39.792 29.886
C 23.129 41.499 28.629
H 23.237 41.946 29.572
H 22.242 41.891 28.114
C 24.279 42.01  27.767
H 25.215 41.68  28.215
C 24.334 43.562 27.877
H 24.427 43.909 28.856
H 25.299 43.937 27.382
H 23.534 43.928 27.335
C 24.12  41.467 26.335
H 23.233 41.914 25.946
H 23.94  40.347 26.379
C 25.335 41.67  25.44 
H 25.704 40.651 25.452
H 26.143 42.371 25.849
C 24.935 42.06  24.058
H 23.905 42.293 23.909
H 24.928 41.17  23.461
C 25.745 43.221 23.276
H 26.788 42.988 23.307
C 25.43  44.742 23.727
H 25.676 44.701 24.79 
H 26.007 45.486 23.168
H 24.346 44.79  23.638
C 25.385 43.009 21.741
H 24.31  43.131 21.64 
H 25.925 43.782 21.198
H 25.772 42.104 21.296
