137

Mg 23.068 27.31  39.325
C 21.131 24.496 39.616
C 24.657 25.883 36.681
H 25.153 25.452 35.832
C 24.889 30.119 38.875
H 25.392 31.114 38.762
C 21.729 28.607 42.17 
H 21.247 29.017 43.066
N 22.85  25.491 38.262
C 22.043 24.48  38.507
C 22.179 23.284 37.527
H 22.308 22.291 37.992
C 23.539 23.636 36.876
H 23.664 23.479 35.76 
C 23.67  25.082 37.279
C 24.657 22.896 37.639
H 24.655 23.187 38.701
H 24.657 21.856 37.46 
H 25.607 23.321 37.304
C 20.814 23.354 36.688
H 20.622 24.414 36.435
H 19.968 23.065 37.258
C 20.87  22.64  35.339
H 21.647 21.923 35.381
H 19.947 22.087 35.301
C 20.944 23.519 34.112
O 21.288 24.66  33.966
O 20.572 22.693 33.075
N 24.606 27.889 38.055
C 25.111 27.175 37.013
C 26.059 27.933 36.221
C 26.137 29.204 36.903
C 25.198 29.106 37.992
C 26.908 27.454 35.022
H 26.706 26.475 34.699
H 26.578 28.032 34.176
H 27.985 27.668 35.167
C 27.029 30.305 36.56 
H 27.193 31.066 37.359
C 27.633 30.512 35.385
H 27.546 29.862 34.543
H 28.208 31.436 35.142
N 23.32  29.111 40.381
C 24.118 30.113 40.016
C 23.943 31.195 40.923
C 22.978 30.772 41.851
C 22.675 29.389 41.528
C 24.702 32.493 40.858
H 25.771 32.376 40.913
H 24.482 32.862 39.819
H 24.244 33.124 41.588
C 22.315 31.558 42.957
H 22.355 30.935 43.797
H 22.895 32.499 43.179
C 20.89  31.881 42.739
H 20.436 32.278 43.59 
H 20.952 32.639 41.889
H 20.324 31.028 42.537
N 21.619 26.738 40.606
C 21.224 27.342 41.744
C 20.247 26.484 42.485
C 20.224 25.355 41.672
C 21.007 25.552 40.523
C 19.652 26.819 43.845
H 19.619 27.917 43.922
H 18.621 26.4   43.963
H 20.344 26.515 44.641
C 19.684 23.986 41.594
O 18.979 23.386 42.36 
C 20.255 23.372 40.228
H 19.438 23.075 39.52 
C 21.091 22.185 40.569
O 22.201 22.248 41.046
O 20.412 21.027 40.366
C 21.007 19.732 40.802
H 20.967 19.782 41.851
H 20.386 18.873 40.453
H 22.038 19.628 40.423
C 20.525 23.379 31.757
H 21.449 23.864 31.35 
H 19.714 24.066 31.805
C 20.115 22.28  30.817
H 20.873 21.534 30.764
C 18.933 22.004 30.239
C 17.606 22.745 30.435
H 17.222 23.119 29.503
H 16.767 22.099 30.794
H 17.651 23.534 31.209
C 18.918 20.818 29.278
H 19.902 20.46  29.2  
H 18.686 21.069 28.22 
C 17.94  19.636 29.638
H 17.635 19.899 30.675
H 18.55  18.717 29.704
C 16.694 19.584 28.737
H 16.478 20.579 28.402
H 15.801 19.197 29.293
C 16.83  18.668 27.418
H 17.69  19.095 26.914
C 15.674 18.973 26.4  
H 14.843 18.494 26.78 
H 15.583 19.986 26.154
H 15.919 18.502 25.419
C 17.033 17.142 27.773
H 17.982 17.008 28.258
H 17.153 16.73  26.773
C 16.096 16.454 28.736
H 15.28  17.164 28.743
H 16.644 16.326 29.675
C 15.605 15.185 28.072
H 15.107 14.65  28.948
H 16.427 14.643 27.644
C 14.507 15.266 26.919
H 14.718 16.141 26.357
C 13.193 15.571 27.663
H 12.853 14.727 28.243
H 13.358 16.373 28.395
H 12.556 15.859 26.781
C 14.518 13.932 26.189
H 13.481 13.873 25.724
H 14.67  13.162 26.986
C 15.539 13.787 25.059
H 16.285 13.132 25.475
H 16.097 14.742 24.852
C 14.897 13.196 23.795
H 15.057 13.777 22.951
H 13.815 12.948 23.926
C 15.621 11.931 23.412
H 16.684 12.158 23.443
C 15.298 11.463 21.952
H 14.322 10.954 21.828
H 15.466 12.373 21.376
H 16.105 10.847 21.611
C 15.224 10.785 24.338
H 15.429 11.113 25.372
H 14.123 10.555 24.3  
H 15.827  9.917 24.117
