137

Mg 33.788 32.993 34.981
C 30.94  31.686 33.493
C 35.603 30.866 33.015
H 36.054 30.109 32.417
C 36.464 33.798 36.838
H 37.316 33.911 37.549
C 31.677 34.807 37.262
H 31.077 35.493 37.889
N 33.313 31.45  33.42 
C 32.131 31.161 32.913
C 32.119 30.123 31.75 
H 31.593 29.179 31.994
C 33.631 29.763 31.778
H 33.986 29.982 30.83 
C 34.235 30.791 32.749
C 33.992 28.308 32.16 
H 35.007 28.122 31.962
H 33.748 28.155 33.213
H 33.365 27.628 31.609
C 31.683 30.694 30.344
H 32.478 31.378 30.02 
H 30.884 31.438 30.533
C 31.422 29.732 29.178
H 32.028 30.048 28.286
H 31.628 28.71  29.57 
C 30.07  29.504 28.63 
O 29.614 28.421 28.325
O 29.355 30.692 28.468
N 35.691 32.536 34.872
C 36.271 31.544 34.096
C 37.654 31.371 34.377
C 37.922 32.287 35.365
C 36.651 32.932 35.721
C 38.568 30.599 33.528
H 39.386 30.212 34.081
H 37.999 29.785 33.085
H 38.941 31.244 32.766
C 39.228 32.528 35.967
H 39.554 33.524 36.21 
C 40.118 31.585 36.288
H 40.034 30.509 36.18 
H 41.084 31.927 36.822
N 34.043 34.171 36.687
C 35.234 34.438 37.224
C 35.18  35.416 38.325
C 33.798 35.719 38.404
C 33.108 34.836 37.445
C 36.329 35.913 39.063
H 37.074 36.418 38.424
H 36.078 36.627 39.861
H 36.818 35.157 39.581
C 33.133 36.64  39.402
H 32.346 35.996 39.749
H 33.802 36.85  40.218
C 32.712 37.965 38.866
H 33.426 38.665 38.412
H 31.96  37.811 38.109
H 32.216 38.424 39.761
N 31.755 33.292 35.269
C 31.012 34.02  36.219
C 29.599 33.899 35.935
C 29.527 32.94  34.906
C 30.888 32.61  34.532
C 28.472 34.512 36.585
H 27.522 34.04  36.633
H 28.736 34.597 37.637
H 28.226 35.473 36.101
C 28.608 32.17  34.074
O 27.392 32.182 34.137
C 29.462 31.371 33.094
H 29.104 31.68  32.047
C 29.083 29.986 33.269
O 29.431 29.264 34.223
O 28.5   29.461 32.149
C 28.172 28.015 32.243
H 29.03  27.287 32.444
H 27.315 27.87  32.94 
H 27.794 27.629 31.273
C 28.062 30.652 27.948
H 27.379 30.008 28.508
H 27.959 30.538 26.93 
C 27.468 32.084 28.132
H 27.792 32.849 27.465
C 26.638 32.447 29.13 
C 26.21 31.69 30.34
H 26.837 30.818 30.44 
H 26.423 32.3   31.209
H 25.094 31.535 30.428
C 26.159 33.881 29.169
H 26.971 34.439 28.748
H 26.117 34.253 30.218
C 24.804 34.054 28.546
H 24.695 33.14  27.957
H 24.798 34.794 27.776
C 23.59  34.338 29.542
H 23.456 35.402 29.64 
H 23.93  34.037 30.497
C 22.347 33.593 29.223
H 22.532 32.576 28.983
C 21.553 34.301 27.981
H 21.201 35.227 28.379
H 22.239 34.425 27.179
H 20.847 33.56  27.712
C 21.432 33.561 30.487
H 20.434 33.306 30.188
H 21.335 34.607 30.906
C 21.806 32.733 31.744
H 21.619 33.24  32.656
H 22.846 32.429 31.597
C 21.126 31.368 31.617
H 21.804 30.566 31.769
H 20.798 31.219 30.591
C 19.838 31.274 32.525
H 19.349 32.273 32.536
C 20.276 31.136 34.049
H 20.687 30.178 34.341
H 21.009 31.873 34.194
H 19.429 31.363 34.654
C 18.881 30.14  32.155
H 19.344 29.192 32.361
H 18.63  30.193 31.102
C 17.429 30.158 32.656
H 16.724 30.108 31.764
H 17.247 31.097 33.114
C 17.104 29.021 33.636
H 17.994 28.905 34.249
H 17.009 28.153 32.997
C 15.882 29.116 34.619
H 15.052 29.404 33.983
C 16.119 29.995 35.79 
H 15.258 29.905 36.475
H 16.949 29.646 36.3  
H 16.288 30.966 35.342
C 15.503 27.663 35.029
H 14.62  27.734 35.794
H 15.097 27.125 34.199
H 16.311 27.038 35.44 
