137

Mg 28.768 26.756 31.452
C 26.815 24.136 30.024
C 30.226 27.119 28.388
H 30.755 27.325 27.482
C 30.633 29.193 32.742
H 31.241 30.067 33.108
C 27.497 25.999 34.543
H 27.196 25.633 35.501
N 28.524 25.736 29.506
C 27.597 24.774 29.115
C 27.536 24.599 27.58 
H 27.717 23.513 27.45 
C 28.819 25.453 27.121
H 28.487 26.209 26.368
C 29.234 26.153 28.398
C 29.844 24.655 26.481
H 30.258 23.884 27.133
H 29.274 24.17  25.671
H 30.727 25.289 26.204
C 26.218 25.146 26.96 
H 26.164 26.199 26.692
H 25.435 24.866 27.803
C 25.749 24.413 25.696
H 25.373 25.182 25.014
H 26.648 24.014 25.21 
C 24.735 23.31  25.813
O 24.817 22.238 25.228
O 23.7   23.687 26.666
N 30.213 27.948 30.688
C 30.66  27.993 29.443
C 31.684 28.997 29.307
C 31.8   29.529 30.611
C 30.816 28.879 31.43 
C 32.538 29.149 28.048
H 33.468 29.577 28.354
H 32.743 28.208 27.527
H 32.085 29.765 27.269
C 32.742 30.594 31.103
H 33.12  30.464 32.102
C 33.183 31.625 30.358
H 32.9   31.616 29.289
H 33.882 32.431 30.737
N 28.922 27.602 33.343
C 29.77  28.55  33.678
C 29.619 28.908 35.117
C 28.603 28.061 35.564
C 28.273 27.201 34.435
C 30.429 30.    35.802
H 30.4   30.814 35.068
H 29.905 30.3   36.662
H 31.416 29.77  36.015
C 27.898 28.041 36.927
H 27.632 27.046 37.231
H 28.595 28.296 37.615
C 26.67  28.892 36.93 
H 25.971 28.555 36.16 
H 26.163 28.842 37.91 
H 26.948 29.899 36.802
N 27.376 25.442 32.186
C 26.963 25.251 33.46 
C 26.147 24.095 33.535
C 25.897 23.686 32.229
C 26.747 24.497 31.426
C 25.5   23.589 34.756
H 24.818 22.798 34.414
H 26.216 23.027 35.346
H 24.959 24.327 35.269
C 25.155 22.834 31.379
O 24.364 21.955 31.676
C 25.62  23.174 29.895
H 24.78  23.502 29.336
C 25.983 21.752 29.442
O 26.786 21.087 30.033
O 25.306 21.396 28.329
C 25.475 19.952 28.062
H 24.826 19.792 27.216
H 26.486 19.662 27.873
H 25.167 19.27  28.901
C 22.577 22.746 26.69 
H 22.954 21.757 26.769
H 22.003 22.73  25.762
C 21.527 23.07  27.831
H 20.991 23.983 27.87 
C 21.244 22.283 28.885
C 21.997 21.024 29.294
H 22.709 21.072 30.111
H 21.278 20.288 29.604
H 22.544 20.523 28.514
C 20.248 22.739 29.905
H 20.215 23.899 29.936
H 20.793 22.519 30.852
C 18.839 22.171 29.859
H 18.746 21.938 30.896
H 18.794 21.272 29.197
C 17.805 23.201 29.463
H 18.27  24.005 28.952
H 17.402 23.604 30.419
C 16.757 22.773 28.327
H 17.237 22.107 27.644
C 16.148 23.975 27.51 
H 15.978 24.809 28.148
H 17.04  24.295 26.844
H 15.313 23.805 26.872
C 15.552 21.908 28.895
H 15.946 21.107 29.491
H 14.954 21.406 28.151
C 14.593 22.769 29.741
H 13.751 23.239 29.171
H 15.148 23.514 30.333
C 13.793 21.931 30.781
H 13.992 20.869 30.517
H 12.691 22.111 30.6  
C 14.106 22.279 32.245
H 15.077 22.722 32.217
C 14.274 21.023 33.095
H 14.448 21.166 34.153
H 13.418 20.467 33.112
H 15.158 20.428 32.723
C 13.102 23.383 32.951
H 12.152 22.815 33.1  
H 12.802 24.16  32.28 
C 13.581 24.035 34.249
H 13.447 25.133 34.015
H 14.56  23.684 34.499
C 12.706 23.642 35.426
H 13.321 23.364 36.315
H 12.17  22.738 35.198
C 11.653 24.77  35.908
H 12.119 25.708 35.661
C 11.489 24.622 37.448
H 10.95  23.683 37.541
H 12.403 24.469 37.915
H 10.949 25.476 37.794
C 10.413 24.629 35.023
H 10.055 23.622 34.961
H  9.687 25.366 35.424
H 10.633 24.948 34.032
