137

Mg 20.637 18.739 33.271
C 23.491 17.529 32.151
C 22.171 21.889 33.537
H 22.742 22.848 33.631
C 17.694 20.022 34.182
H 16.677 20.417 34.507
C 19.16  15.604 33.043
H 18.715 14.682 33.222
N 22.526 19.658 32.684
C 23.586 18.876 32.374
C 24.856 19.739 32.131
H 25.679 19.31  32.786
C 24.484 21.11  32.777
H 24.614 21.966 32.24 
C 22.988 20.875 33.018
C 25.227 21.455 34.099
H 26.3   21.622 34.069
H 24.882 22.435 34.492
H 24.901 20.608 34.669
C 25.406 19.861 30.739
H 24.75  20.53  30.286
H 25.52  18.974 30.178
C 26.783 20.691 30.593
H 27.106 21.248 31.536
H 27.596 19.974 30.533
C 26.935 21.549 29.303
O 27.585 21.248 28.284
O 26.221 22.692 29.443
N 20.038 20.712 33.903
C 20.793 21.9   33.853
C 19.874 22.957 34.326
C 18.606 22.394 34.447
C 18.736 20.955 34.153
C 20.277 24.439 34.414
H 20.669 24.698 35.378
H 21.076 24.39  33.754
H 19.397 25.037 34.112
C 17.288 23.102 34.574
H 16.404 22.762 33.982
C 17.1   24.215 35.269
H 17.923 24.643 35.837
H 16.193 24.782 35.275
N 18.7   17.931 33.609
C 17.608 18.652 33.962
C 16.494 17.767 34.216
C 16.994 16.515 33.835
C 18.343 16.613 33.46 
C 15.047 18.171 34.696
H 15.109 19.17  35.13 
H 14.268 18.178 33.983
H 14.787 17.393 35.406
C 16.137 15.196 33.776
H 16.704 14.435 34.326
H 15.163 15.302 34.263
C 15.89  14.598 32.424
H 16.766 14.333 31.913
H 15.354 13.646 32.345
H 15.329 15.332 31.801
N 21.1   17.    32.589
C 20.486 15.745 32.644
C 21.413 14.719 32.226
C 22.592 15.393 31.924
C 22.355 16.744 32.292
C 21.014 13.31  31.959
H 20.434 12.991 32.814
H 20.47  13.277 30.983
H 21.889 12.68  31.858
C 23.968 15.21  31.488
O 24.593 14.23  31.192
C 24.588 16.611 31.609
H 24.82  16.82  30.568
C 25.787 16.578 32.41 
O 25.79  16.621 33.628
O 26.886 16.906 31.669
C 28.012 17.303 32.471
H 28.564 16.379 32.82 
H 28.728 17.808 31.791
H 27.81  17.899 33.315
C 26.346 23.797 28.556
H 26.448 23.353 27.505
H 27.169 24.482 28.864
C 24.999 24.383 28.783
H 24.679 24.291 29.851
C 24.189 24.897 27.821
C 24.47  25.102 26.397
H 24.593 26.102 26.022
H 25.351 24.576 26.084
H 23.663 24.623 25.788
C 22.838 25.296 28.337
H 22.68  24.945 29.385
H 22.017 24.883 27.773
C 22.57  26.841 28.433
H 23.244 27.415 27.803
H 22.814 27.187 29.384
C 21.131 27.275 28.031
H 20.568 26.414 27.566
H 21.265 28.043 27.247
C 20.333 27.87  29.23 
H 21.083 28.541 29.577
C 20.095 26.983 30.442
H 19.58  26.036 30.063
H 21.029 26.718 30.961
H 19.428 27.496 31.101
C 18.971 28.553 28.883
H 18.509 29.014 29.77 
H 18.321 27.765 28.55 
C 18.939 29.548 27.759
H 18.963 29.035 26.791
H 19.655 30.374 27.715
C 17.536 30.246 27.582
H 16.784 29.724 28.098
H 17.328 30.164 26.497
C 17.454 31.707 28.121
H 18.083 32.387 27.585
C 17.753 31.866 29.622
H 17.762 32.892 29.868
H 17.013 31.344 30.172
H 18.681 31.321 29.934
C 15.987 32.215 27.937
H 15.358 31.715 28.642
H 15.683 31.932 26.925
C 15.866 33.719 28.178
H 16.772 34.32  28.425
H 15.244 33.754 29.128
C 15.297 34.694 27.109
H 14.656 33.964 26.536
H 16.057 35.089 26.407
C 14.335 35.791 27.552
H 13.643 35.255 28.223
C 13.472 36.39  26.418
H 12.827 37.224 26.75 
H 14.166 36.815 25.752
H 12.834 35.664 25.934
C 15.065 36.885 28.293
H 15.813 37.45  27.716
H 14.324 37.552 28.704
H 15.511 36.446 29.219
