137

Mg 19.221 23.031 29.337
C 22.45  23.642 30.639
C 18.091 25.684 31.305
H 17.8   26.484 31.913
C 16.219 22.365 28.308
H 15.202 22.195 27.928
C 20.442 20.093 28.036
H 20.708 19.056 27.622
N 20.252 24.596 30.672
C 21.551 24.59  31.035
C 21.829 25.803 31.966
H 22.12  25.363 32.929
C 20.368 26.437 32.184
H 20.363 27.53  31.825
C 19.514 25.563 31.324
C 19.984 26.508 33.732
H 18.905 26.769 33.691
H 20.184 25.527 34.22 
H 20.521 27.279 34.277
C 22.842 26.847 31.412
H 22.522 26.942 30.391
H 23.808 26.48  31.592
C 22.927 28.214 32.138
H 22.235 28.178 32.972
H 23.873 28.266 32.658
C 22.806 29.518 31.394
O 22.488 29.534 30.169
O 22.894 30.561 32.274
N 17.434 23.925 29.715
C 17.177 24.956 30.573
C 15.71  25.177 30.511
C 15.204 24.245 29.69 
C 16.336 23.485 29.147
C 14.991 26.265 31.202
H 14.381 26.925 30.531
H 14.455 25.828 32.134
H 15.668 27.036 31.638
C 13.765 24.111 29.366
H 13.04  24.174 30.18 
C 13.223 23.868 28.175
H 13.853 23.794 27.242
H 12.072 23.664 28.12 
N 18.39  21.451 28.31 
C 17.108 21.373 27.921
C 16.883 20.154 27.16 
C 18.141 19.647 26.958
C 19.091 20.409 27.759
C 15.555 19.745 26.604
H 15.715 18.826 26.09 
H 14.874 19.542 27.422
H 15.266 20.522 25.868
C 18.523 18.523 26.018
H 19.242 17.913 26.494
H 17.643 17.853 25.805
C 19.323 18.832 24.645
H 18.763 19.593 24.145
H 20.381 19.216 24.778
H 19.366 17.979 24.025
N 21.036 22.033 29.333
C 21.333 20.794 28.882
C 22.664 20.37  29.273
C 23.148 21.505 29.932
C 22.113 22.503 29.959
C 23.249 19.008 29.141
H 22.459 18.35  29.387
H 23.538 18.72  28.163
H 24.146 18.971 29.795
C 24.284 22.039 30.609
O 25.443 21.554 30.806
C 23.89  23.522 31.133
H 24.503 24.33  30.78 
C 23.853 23.315 32.629
O 23.13  22.581 33.266
O 24.709 24.154 33.224
C 24.653 24.064 34.722
H 24.87  23.075 35.043
H 25.368 24.809 35.038
H 23.681 24.452 35.118
C 22.795 31.798 31.5  
H 22.99  31.863 30.409
H 23.369 32.583 31.989
C 21.394 32.384 31.739
H 20.643 31.853 31.049
C 20.895 33.473 32.424
C 21.644 34.471 33.244
H 21.777 35.467 32.775
H 21.062 34.559 34.172
H 22.619 34.118 33.6  
C 19.385 33.848 32.275
H 18.959 33.144 31.556
H 19.277 34.836 31.826
C 18.505 33.872 33.643
H 19.102 33.394 34.499
H 17.632 33.219 33.499
C 18.123 35.424 33.979
H 17.292 35.744 33.313
H 19.054 35.939 33.655
C 17.751 35.687 35.442
H 18.647 35.594 36.127
C 16.715 34.571 35.984
H 15.855 34.549 35.325
H 17.119 33.534 35.752
H 16.442 34.712 36.983
C 17.115 37.067 35.627
H 16.776 37.232 36.634
H 16.225 37.103 34.945
C 18.051 38.153 35.189
H 19.022 37.831 34.916
H 18.245 38.735 36.116
C 17.418 38.998 34.012
H 16.633 39.612 34.472
H 16.854 38.361 33.353
C 18.529 39.706 33.215
H 19.347 39.021 33.188
C 18.921 41.037 33.897
H 18.204 41.882 33.645
H 18.891 40.847 34.931
H 19.927 41.319 33.712
C 18.066 40.013 31.774
H 17.367 40.84  31.844
H 17.666 39.043 31.376
C 19.129 40.527 30.755
H 20.051 40.619 31.404
H 18.77  41.457 30.395
C 19.407 39.582 29.611
H 19.015 40.153 28.722
H 18.843 38.614 29.701
C 20.91  39.07  29.508
H 21.13  38.546 30.455
C 21.982 40.16  29.278
H 22.963 39.648 29.174
H 21.703 40.688 28.408
H 21.928 40.831 30.165
C 20.984 38.038 28.385
H 20.548 38.491 27.536
H 22.077 37.678 28.209
H 20.335 37.144 28.641
