137

Mg 20.362 18.285 22.992
C 21.725 21.1   21.525
C 20.158 20.169 25.893
H 20.088 20.815 26.703
C 18.566 15.881 24.273
H 17.964 15.129 24.707
C 20.284 16.738 19.833
H 20.278 16.142 18.91 
N 20.818 20.354 23.61 
C 21.383 21.341 22.83 
C 21.563 22.681 23.573
H 22.6   23.009 23.407
C 21.273 22.264 25.057
H 20.602 22.929 25.637
C 20.68  20.866 24.865
C 22.589 22.236 25.917
H 23.245 23.133 25.85 
H 22.196 22.108 26.919
H 23.149 21.386 25.661
C 20.811 23.888 22.963
H 19.743 23.641 23.081
H 21.072 23.901 21.938
C 21.07  25.264 23.606
H 20.132 25.718 23.786
H 21.417 25.094 24.613
C 21.963 26.336 22.877
O 22.791 26.002 22.054
O 21.729 27.65  23.213
N 19.453 18.095 24.848
C 19.505 18.933 25.924
C 18.765 18.351 26.991
C 18.315 17.074 26.574
C 18.744 16.98  25.127
C 18.523 19.024 28.288
H 18.524 20.068 28.015
H 17.552 18.784 28.736
H 19.285 18.781 28.983
C 17.568 16.022 27.285
H 16.793 15.449 26.758
C 17.765 15.779 28.569
H 18.49  16.277 29.176
H 17.105 15.011 29.055
N 19.663 16.492 22.224
C 18.944 15.601 22.933
C 18.508 14.444 22.036
C 19.082 14.785 20.805
C 19.746 16.034 20.937
C 17.637 13.315 22.394
H 16.786 13.302 21.685
H 18.252 12.403 22.356
H 17.224 13.551 23.333
C 18.916 13.987 19.539
H 19.794 13.825 18.973
H 18.667 12.939 19.759
C 17.779 14.478 18.673
H 17.838 13.882 17.778
H 16.882 14.252 19.252
H 17.909 15.588 18.467
N 20.861 18.784 21.056
C 20.828 18.026 19.889
C 21.315 18.868 18.805
C 21.702 20.081 19.406
C 21.386 19.967 20.75 
C 21.526 18.509 17.29 
H 21.654 19.443 16.843
H 22.473 17.959 17.158
H 20.608 17.98  16.82 
C 22.338 21.398 19.096
O 22.693 21.954 18.034
C 22.528 21.947 20.557
H 22.242 22.989 20.524
C 24.002 21.82  20.712
O 24.743 20.966 20.264
O 24.469 22.844 21.461
C 25.912 22.751 21.794
H 26.083 22.218 22.677
H 26.581 22.361 21.026
H 26.382 23.734 21.999
C 22.38  28.66  22.445
H 22.345 28.331 21.432
H 23.429 28.735 22.717
C 21.515 29.848 22.583
H 20.508 29.676 22.352
C 21.844 31.06  23.047
C 23.241 31.438 23.551
H 23.048 31.962 24.435
H 23.801 30.57  23.936
H 23.784 31.96  22.793
C 20.778 32.126 23.003
H 20.64  32.361 24.08 
H 19.809 31.745 22.634
C 21.07  33.425 22.304
H 21.733 33.159 21.469
H 21.502 34.086 23.055
C 19.919 34.149 21.74 
H 18.984 33.781 22.157
H 20.007 34.024 20.707
C 19.881 35.659 22.003
H 20.89  36.101 21.835
C 19.46  35.999 23.424
H 18.432 35.642 23.681
H 20.243 35.712 24.101
H 19.557 37.102 23.386
C 19.05  36.34  20.873
H 19.067 37.37  21.183
H 18.039 36.015 21.096
C 19.377 36.156 19.393
H 18.446 35.801 18.856
H 20.224 35.499 19.215
C 19.58  37.545 18.727
H 20.517 37.356 18.212
H 19.92  38.193 19.49 
C 18.492 38.079 17.741
H 18.418 37.293 16.993
C 19.032 39.411 17.177
H 18.487 39.73  16.311
H 19.064 40.242 17.908
H 20.004 39.275 16.861
C 17.09  38.104 18.241
H 17.173 38.711 19.043
H 16.78  37.142 18.618
C 16.082 38.461 17.122
H 15.247 37.798 17.224
H 16.545 38.382 16.137
C 15.684 39.929 17.323
H 15.608 40.37  16.372
H 16.555 40.438 17.699
C 14.488 40.286 18.113
H 13.656 39.625 17.823
C 13.915 41.73  17.876
H 13.928 41.889 16.777
H 12.899 41.795 18.213
H 14.483 42.499 18.361
C 14.636 39.963 19.631
H 14.643 38.905 19.699
H 15.497 40.381 20.122
H 13.801 40.296 20.149
