137

Mg 20.612 22.387 31.105
C 23.792 21.238 31.315
C 21.604 25.413 32.202
H 21.771 26.476 32.432
C 17.436 23.669 30.558
H 16.469 24.097 30.37 
C 19.626 19.446 29.581
H 19.216 18.583 29.071
N 22.478 23.193 31.699
C 23.64  22.526 31.83 
C 24.758 23.436 32.368
H 25.156 22.959 33.233
C 24.008 24.755 32.792
H 24.399 25.656 32.268
C 22.573 24.447 32.271
C 23.958 25.012 34.303
H 23.601 24.149 34.912
H 25.042 25.22  34.518
H 23.424 25.87  34.561
C 25.838 23.734 31.257
H 25.339 23.968 30.361
H 26.395 22.81  31.253
C 26.814 24.889 31.58 
H 26.651 25.554 32.417
H 27.753 24.381 31.792
C 27.164 25.889 30.401
O 27.709 25.492 29.416
O 26.626 27.071 30.607
N 19.752 24.256 31.261
C 20.295 25.383 31.834
C 19.387 26.521 31.781
C 18.175 25.993 31.275
C 18.398 24.553 31.027
C 19.571 27.891 32.471
H 18.609 28.371 32.592
H 20.065 27.786 33.468
H 20.079 28.583 31.797
C 16.819 26.617 31.194
H 15.879 26.006 31.404
C 16.666 27.933 30.974
H 17.543 28.551 30.713
H 15.699 28.474 30.86 
N 18.881 21.683 30.261
C 17.622 22.317 30.267
C 16.62  21.46  29.632
C 17.249 20.258 29.374
C 18.628 20.421 29.768
C 15.171 21.779 29.58 
H 15.092 22.91  29.449
H 14.567 21.415 28.744
H 14.739 21.495 30.539
C 16.561 18.97  28.977
H 15.64  19.232 28.542
H 17.153 18.401 28.286
C 16.421 18.028 30.218
H 16.212 18.63  31.185
H 15.539 17.389 30.003
H 17.323 17.476 30.355
N 21.485 20.602 30.581
C 21.005 19.51  29.85 
C 22.156 18.568 29.56 
C 23.226 19.208 30.126
C 22.765 20.417 30.74 
C 22.103 17.521 28.637
H 23.038 17.149 28.312
H 21.596 16.724 29.184
H 21.447 17.91  27.771
C 24.645 19.144 30.367
O 25.482 18.289 30.026
C 25.049 20.42  31.194
H 25.684 21.006 30.505
C 25.554 19.827 32.419
O 24.941 19.125 33.229
O 26.825 20.131 32.678
C 27.498 19.606 33.871
H 27.079 20.023 34.776
H 27.401 18.547 33.905
H 28.557 19.775 33.952
C 26.812 28.067 29.584
H 26.517 27.767 28.575
H 27.782 28.495 29.564
C 25.994 29.227 30.096
H 26.158 29.576 31.103
C 25.235 30.059 29.389
C 24.66  29.784 28.067
H 25.072 28.983 27.564
H 23.62  29.503 28.086
H 24.677 30.643 27.401
C 24.393 31.086 30.178
H 24.131 30.921 31.239
H 23.431 31.209 29.599
C 24.901 32.52  30.316
H 25.089 32.937 29.37 
H 25.828 32.489 30.877
C 23.844 33.507 30.95 
H 22.943 32.986 31.067
H 23.57  34.366 30.386
C 24.197 34.038 32.367
H 25.25  34.386 32.293
C 24.265 32.839 33.449
H 23.268 32.366 33.564
H 25.032 32.029 33.205
H 24.375 33.37  34.451
C 23.262 35.127 32.828
H 23.699 35.333 33.829
H 22.265 34.708 32.758
C 23.272 36.47  32.027
H 22.5   36.328 31.253
H 24.275 36.491 31.482
C 23.133 37.707 32.923
H 24.216 37.869 33.186
H 22.572 37.536 33.826
C 22.592 39.048 32.228
H 21.559 38.869 31.867
C 23.376 39.448 30.949
H 23.159 38.703 30.238
H 23.061 40.385 30.56 
H 24.426 39.432 31.173
C 22.602 40.273 33.196
H 23.618 40.604 33.463
H 22.13  40.003 34.129
C 21.948 41.531 32.653
H 21.209 41.057 31.962
H 22.719 42.141 32.056
C 21.389 42.35  33.765
H 21.985 43.271 33.778
H 21.521 41.845 34.735
C 19.84  42.752 33.641
H 19.669 43.257 32.73 
C 19.474 43.627 34.86 
H 18.427 43.85  34.796
H 19.669 43.191 35.848
H 19.962 44.632 34.856
C 18.955 41.482 33.658
H 19.483 40.598 34.071
H 18.032 41.636 34.124
H 18.803 41.171 32.62 
