137

Mg 19.116 23.367 29.641
C 21.804 23.993 31.854
C 17.506 26.082 31.04 
H 17.034 26.86  31.622
C 16.384 22.419 28.146
H 15.468 22.174 27.648
C 20.752 20.551 28.618
H 21.305 19.675 28.349
N 19.628 24.933 31.059
C 20.826 25.041 31.87 
C 20.815 26.271 32.759
H 20.796 25.838 33.747
C 19.466 26.962 32.356
H 19.743 27.83  31.822
C 18.822 25.94  31.393
C 18.64  27.391 33.562
H 17.835 28.077 33.307
H 18.247 26.477 34.046
H 19.303 27.858 34.27 
C 22.075 27.04  32.458
H 21.889 27.382 31.433
H 22.967 26.407 32.43 
C 22.398 28.109 33.49 
H 21.726 28.304 34.334
H 23.231 27.741 34.029
C 22.72  29.571 32.977
O 23.688 29.878 32.344
O 21.805 30.491 33.402
N 17.361 24.16  29.473
C 16.813 25.236 30.089
C 15.459 25.486 29.668
C 15.127 24.428 28.848
C 16.313 23.578 28.795
C 14.649 26.656 30.201
H 14.472 26.643 31.294
H 15.104 27.618 29.892
H 13.707 26.542 29.674
C 13.816 24.193 28.28 
H 12.906 24.363 28.82 
C 13.657 24.141 26.919
H 14.536 23.967 26.239
H 12.612 24.192 26.475
N 18.632 21.729 28.481
C 17.445 21.542 27.95 
C 17.496 20.29  27.115
C 18.785 19.811 27.22 
C 19.513 20.767 28.089
C 16.27  19.666 26.605
H 15.831 20.52  26.165
H 16.465 18.859 25.939
H 15.715 19.316 27.404
C 19.263 18.514 26.536
H 19.803 17.981 27.326
H 18.457 17.835 26.337
C 20.31  18.818 25.572
H 21.146 19.264 26.023
H 20.611 17.884 25.082
H 19.883 19.473 24.747
N 20.858 22.451 30.075
C 21.411 21.282 29.573
C 22.672 20.976 30.247
C 22.744 22.01  31.198
C 21.714 22.845 31.042
C 23.656 19.876 30.07 
H 24.651 20.304 30.179
H 23.709 19.216 30.947
H 23.706 19.336 29.181
C 23.575 22.509 32.337
O 24.544 22.005 32.893
C 22.946 23.786 32.799
H 23.724 24.532 32.685
C 22.547 23.647 34.145
O 21.588 23.009 34.579
O 23.428 24.421 34.972
C 22.919 24.518 36.332
H 22.662 23.577 36.85 
H 23.557 25.073 37.033
H 21.974 25.077 36.43 
C 22.079 31.887 33.126
H 22.304 32.078 32.102
H 22.884 32.281 33.687
C 20.799 32.584 33.29 
H 19.892 32.012 32.877
C 20.677 33.897 33.524
C 21.756 34.878 33.861
H 21.731 35.741 33.12 
H 21.574 35.348 34.821
H 22.714 34.477 33.845
C 19.428 34.65  33.322
H 18.734 34.083 32.678
H 19.635 35.482 32.781
C 18.724 34.872 34.716
H 19.402 34.4   35.362
H 17.76  34.354 34.813
C 18.635 36.411 35.042
H 17.567 36.643 34.976
H 19.102 37.017 34.297
C 19.086 36.735 36.483
H 20.062 36.327 36.542
C 18.27  35.984 37.581
H 17.266 36.435 37.549
H 18.055 34.917 37.308
H 18.677 36.098 38.583
C 19.107 38.298 36.727
H 19.472 38.479 37.742
H 18.091 38.683 36.663
C 20.185 38.969 35.838
H 20.995 38.271 35.647
H 20.571 39.653 36.575
C 19.655 39.714 34.558
H 19.426 40.736 34.868
H 18.728 39.141 34.289
C 20.606 39.769 33.278
H 20.965 38.727 33.058
C 21.822 40.643 33.643
H 22.504 40.905 32.797
H 21.505 41.56  34.109
H 22.43  40.124 34.397
C 19.711 40.24  32.035
H 19.428 41.257 32.403
H 18.897 39.541 32.022
C 20.374 40.195 30.682
H 21.419 40.473 30.656
H 19.842 40.96  30.161
C 20.168 38.849 30.002
H 19.127 38.919 29.604
H 20.224 38.083 30.751
C 21.163 38.452 28.876
H 22.199 38.616 29.261
C 21.12  39.352 27.662
H 21.936 38.938 27.066
H 20.118 39.28  27.199
H 21.367 40.426 27.633
C 20.959 37.007 28.54 
H 20.05  36.934 27.964
H 21.853 36.639 27.898
H 20.867 36.312 29.333
