137

Mg 20.748 32.69  32.674
C 20.89  29.287 31.873
C 17.668 32.241 33.974
H 16.653 32.095 34.37 
C 20.528 35.962 33.126
H 20.232 36.98  33.238
C 23.861 33.026 31.084
H 24.723 33.223 30.458
N 19.441 31.005 32.882
C 19.692 29.672 32.421
C 18.483 28.815 32.615
H 18.17  28.336 31.707
C 17.466 29.87  33.31 
H 17.131 29.711 34.372
C 18.222 31.132 33.379
C 16.192 30.076 32.418
H 16.317 30.76  31.625
H 15.968 29.13  31.89 
H 15.466 30.451 33.06 
C 18.761 27.666 33.697
H 18.966 28.155 34.657
H 19.748 27.221 33.46 
C 17.522 26.682 33.766
H 16.913 26.657 32.829
H 17.995 25.703 33.946
C 16.502 26.649 34.924
O 16.605 26.076 35.971
O 15.421 27.42  34.583
N 19.396 33.89  33.708
C 18.209 33.539 34.258
C 17.578 34.587 34.977
C 18.33  35.782 34.633
C 19.497 35.234 33.827
C 16.259 34.533 35.746
H 15.477 34.388 35.013
H 16.244 33.621 36.283
H 16.048 35.352 36.46 
C 18.093 37.192 34.915
H 18.783 37.953 34.876
C 16.882 37.602 35.313
H 15.963 37.071 35.392
H 16.824 38.66  35.433
N 22.022 34.231 32.155
C 21.67  35.509 32.421
C 22.694 36.36  31.808
C 23.734 35.499 31.396
C 23.222 34.126 31.556
C 22.477 37.864 31.722
H 21.576 38.095 31.1  
H 22.406 38.302 32.707
H 23.282 38.26  31.06 
C 25.029 35.942 30.797
H 25.169 35.582 29.782
H 24.95  36.978 30.718
C 26.25  35.43  31.601
H 26.149 35.715 32.608
H 26.376 34.338 31.48 
H 27.165 35.895 31.215
N 22.203 31.468 31.816
C 23.441 31.714 31.194
C 24.094 30.491 30.76 
C 23.092 29.477 31.103
C 21.97  30.156 31.67 
C 25.317 30.389 30.025
H 25.975 31.199 30.27 
H 25.8   29.459 30.251
H 25.088 30.429 28.968
C 22.798 28.122 30.9  
O 23.543 27.199 30.51 
C 21.354 27.928 31.428
H 21.528 27.2   32.211
C 20.591 27.406 30.214
O 20.022 28.008 29.267
O 20.461 26.037 30.416
C 19.52  25.354 29.499
H 18.461 25.642 29.576
H 19.671 25.637 28.413
H 19.626 24.264 29.632
C 14.515 27.69  35.743
H 15.023 28.181 36.523
H 13.938 26.909 36.2  
C 13.37  28.625 35.429
H 12.289 28.261 35.209
C 13.479 29.936 35.469
C 14.695 30.831 35.737
H 15.586 30.226 35.602
H 14.736 31.612 34.933
H 14.815 31.248 36.71 
C 12.179 30.752 35.38 
H 11.324 30.141 35.329
H 12.176 31.405 34.441
C 11.72  31.513 36.685
H 12.594 31.682 37.349
H 10.948 31.017 37.282
C 11.031 32.86  36.334
H 10.138 32.874 36.9  
H 10.746 32.854 35.291
C 11.707 34.237 36.794
H 12.041 34.196 37.844
C 10.646 35.433 36.663
H 11.025 36.416 36.926
H 10.255 35.394 35.623
H  9.866 35.094 37.371
C 12.949 34.6   35.897
H 13.707 33.82  36.114
H 13.305 35.464 36.36 
C 12.799 34.887 34.411
H 11.736 34.642 34.189
H 13.274 34.083 33.878
C 13.308 36.28  33.888
H 14.164 36.072 33.289
H 13.628 36.88  34.751
C 12.26  37.133 33.052
H 11.43  37.365 33.787
C 11.569 36.382 31.859
H 12.27  36.019 31.107
H 10.962 35.62  32.284
H 10.908 37.078 31.38 
C 12.841 38.433 32.435
H 12.123 38.931 31.792
H 13.591 38.204 31.688
C 13.248 39.53  33.36 
H 12.759 39.379 34.308
H 12.845 40.456 32.921
C 14.783 39.629 33.565
H 15.232 38.668 33.434
H 14.922 39.906 34.684
C 15.579 40.59  32.623
H 15.232 41.636 32.826
C 15.106 40.498 31.179
H 14.038 40.502 30.989
H 15.503 41.278 30.554
H 15.562 39.445 30.927
C 17.153 40.643 32.793
H 17.587 40.966 31.888
H 17.474 41.234 33.635
H 17.491 39.594 32.985
