137

Mg 27.775 32.037 31.54 
C 25.976 32.434 34.442
C 25.112 33.581 29.871
H 24.2   34.01  29.414
C 29.684 32.363 28.831
H 30.324 32.397 27.941
C 30.354 30.639 33.231
H 31.28  30.125 33.683
N 25.719 32.64  32.033
C 25.219 32.739 33.335
C 23.703 33.144 33.308
H 23.156 32.302 33.661
C 23.401 33.321 31.787
H 23.066 34.313 31.544
C 24.822 33.254 31.182
C 22.576 32.101 31.078
H 22.378 32.266 30.007
H 23.008 31.115 31.208
H 21.637 32.116 31.582
C 23.354 34.394 34.169
H 23.665 35.333 33.735
H 23.729 34.395 35.177
C 21.865 34.496 34.341
H 21.311 34.066 33.557
H 21.667 33.846 35.226
C 21.386 35.849 34.723
O 21.077 36.18  35.883
O 21.024 36.506 33.628
N 27.519 32.901 29.7  
C 26.364 33.443 29.183
C 26.586 33.99  27.85 
C 27.899 33.635 27.463
C 28.439 32.954 28.714
C 25.511 34.927 27.111
H 24.83  34.358 26.583
H 24.862 35.45  27.779
H 26.011 35.678 26.491
C 28.773 33.917 26.316
H 29.852 33.893 26.467
C 28.329 34.129 25.059
H 27.209 34.147 24.848
H 28.982 34.347 24.267
N 29.721 31.619 31.158
C 30.275 31.705 29.891
C 31.655 31.156 29.864
C 31.843 30.597 31.142
C 30.616 30.88  31.89 
C 32.644 31.215 28.668
H 32.34  30.651 27.822
H 32.931 32.226 28.424
H 33.59  30.662 28.911
C 33.147 29.957 31.695
H 32.835 29.145 32.229
H 33.88  29.724 30.897
C 33.83  30.987 32.58 
H 33.307 31.607 33.238
H 34.572 30.496 33.218
H 34.384 31.58  31.849
N 28.188 31.617 33.45 
C 29.34  31.077 34.042
C 29.135 31.064 35.502
C 27.842 31.651 35.734
C 27.272 31.957 34.453
C 30.067 30.553 36.594
H 29.663 30.711 37.616
H 30.627 29.654 36.385
H 30.815 31.347 36.512
C 26.89  32.086 36.716
O 26.869 32.19  37.949
C 25.624 32.55  35.922
H 25.565 33.564 36.256
C 24.496 31.682 36.377
O 24.236 30.565 36.005
O 23.744 32.452 37.188
C 22.505 31.735 37.671
H 21.946 31.275 36.894
H 22.571 30.912 38.413
H 21.825 32.481 38.106
C 20.067 37.601 33.914
H 20.478 38.391 34.515
H 19.317 37.212 34.554
C 19.669 38.126 32.546
H 20.501 38.34  31.887
C 18.465 38.363 32.071
C 17.166 38.358 32.864
H 16.287 38.361 32.105
H 17.158 37.565 33.615
H 17.158 39.3   33.428
C 18.257 38.77  30.612
H 19.209 38.886 30.144
H 17.855 39.748 30.559
C 17.387 37.906 29.663
H 17.038 37.049 30.186
H 18.076 37.509 28.876
C 16.073 38.608 29.11 
H 16.073 39.613 29.554
H 15.215 38.121 29.515
C 16.088 38.496 27.512
H 17.155 38.454 27.115
C 15.329 39.645 26.845
H 15.925 40.626 27.093
H 15.097 39.535 25.769
H 14.43  39.699 27.381
C 15.569 37.163 27.039
H 16.093 36.275 27.469
H 15.728 37.259 25.949
C 14.032 36.908 27.21 
H 13.564 37.394 26.304
H 13.48  37.288 28.104
C 13.689 35.458 27.089
H 14.57  34.877 26.882
H 12.913 35.35  26.31 
C 13.126 34.895 28.423
H 12.251 35.363 28.637
C 14.119 34.977 29.576
H 15.039 34.481 29.294
H 14.492 35.918 30.016
H 13.706 34.426 30.375
C 12.61  33.448 28.113
H 13.509 32.771 28.132
H 12.164 33.397 27.146
C 11.676 32.907 29.239
H 11.026 33.726 29.552
H 12.271 32.595 30.084
C 10.713 31.778 28.671
H 10.842 30.952 29.351
H 10.992 31.462 27.703
C  9.163 32.115 28.665
H  9.005 32.565 29.628
C  8.246 30.875 28.362
H  7.207 31.269 28.257
H  8.657 30.504 27.436
H  8.356 30.066 29.157
C  8.836 33.405 27.776
H  7.815 33.582 27.915
H  9.55  34.228 27.946
H  8.813 33.192 26.759
