137

Mg 34.611 29.25  34.226
C 31.218 29.042 34.638
C 34.31  26.909 31.691
H 34.291 26.041 31.048
C 38.013 29.335 33.923
H 39.136 29.398 33.879
C 34.792 31.285 37.054
H 34.969 32.028 37.757
N 32.973 28.204 33.214
C 31.662 28.358 33.524
C 30.75  27.563 32.619
H 30.135 26.962 33.269
C 31.792 26.826 31.688
H 31.754 27.268 30.685
C 33.115 27.318 32.207
C 31.479 25.244 31.681
H 32.256 24.761 31.195
H 31.519 24.813 32.713
H 30.594 25.081 31.067
C 29.79  28.554 31.904
H 30.262 29.387 31.453
H 29.123 28.942 32.643
C 28.94  28.062 30.809
H 28.515 28.908 30.292
H 29.651 27.622 30.071
C 27.849 27.049 31.131
O 28.006 26.045 31.797
O 26.885 27.244 30.232
N 35.946 28.232 33.059
C 35.637 27.384 32.054
C 36.897 26.892 31.444
C 37.912 27.561 32.051
C 37.292 28.445 33.081
C 36.989 25.896 30.263
H 36.436 25.063 30.734
H 36.494 26.15  29.329
H 38.074 25.574 30.112
C 39.377 27.453 31.887
H 39.81  27.575 30.949
C 40.191 27.157 32.939
H 39.81  26.913 33.914
H 41.272 27.116 32.807
N 36.163 30.136 35.286
C 37.444 30.146 34.927
C 38.205 31.094 35.753
C 37.334 31.526 36.73 
C 35.993 31.015 36.33 
C 39.638 31.234 35.768
H 40.163 30.435 36.168
H 40.03  31.424 34.754
H 39.811 32.213 36.305
C 37.684 32.296 37.952
H 36.956 31.932 38.682
H 38.641 32.044 38.416
C 37.363 33.744 37.712
H 37.669 34.3   38.632
H 37.926 34.223 36.921
H 36.265 33.954 37.598
N 33.387 29.885 35.706
C 33.582 30.728 36.711
C 32.362 30.948 37.402
C 31.423 30.232 36.658
C 32.07  29.627 35.624
C 32.1   31.869 38.583
H 32.131 32.869 38.139
H 31.03  31.573 38.912
H 32.867 31.847 39.372
C 30.077 29.839 36.626
O 29.166 30.044 37.385
C 29.912 28.98  35.358
H 29.12  29.443 34.877
C 29.413 27.583 35.811
O 30.088 26.892 36.504
O 28.193 27.11  35.274
C 28.112 25.595 35.214
H 28.289 25.248 36.171
H 27.208 25.155 34.81 
H 28.905 25.271 34.538
C 25.74  26.286 30.388
H 25.463 26.254 31.411
H 26.022 25.327 30.024
C 24.732 26.809 29.393
H 25.108 27.254 28.495
C 23.398 26.871 29.61 
C 22.595 26.588 30.938
H 22.21  27.426 31.459
H 21.86  25.787 30.733
H 23.302 26.134 31.548
C 22.377 27.605 28.659
H 22.244 28.553 29.14 
H 21.432 27.095 28.82 
C 22.62  27.72  27.174
H 21.819 27.3   26.588
H 23.609 27.18  26.912
C 22.844 29.211 26.775
H 23.739 29.131 26.184
H 23.137 29.793 27.688
C 21.595 29.894 26.041
H 20.636 29.844 26.636
C 21.369 29.283 24.617
H 20.748 29.897 23.992
H 22.321 29.198 24.084
H 20.988 28.269 24.724
C 21.75  31.455 26.068
H 20.977 31.955 25.502
H 22.64  31.637 25.431
C 21.696 32.239 27.357
H 21.708 31.524 28.23 
H 20.795 32.924 27.34 
C 22.965 33.17  27.582
H 23.756 32.819 27.035
H 23.219 33.117 28.609
C 22.766 34.675 27.305
H 22.047 35.08  27.969
C 22.186 35.015 25.899
H 21.141 34.688 25.803
H 22.155 36.11  25.776
H 22.79  34.642 25.064
C 24.134 35.298 27.374
H 24.187 36.266 26.913
H 24.789 34.699 26.8  
C 24.759 35.506 28.771
H 25.523 34.727 28.803
H 24.064 35.447 29.613
C 25.531 36.785 28.941
H 25.093 37.642 28.365
H 26.521 36.508 28.53 
C 25.662 37.337 30.433
H 25.964 36.448 30.977
C 24.393 38.058 30.972
H 24.122 38.74  30.192
H 23.669 37.333 31.206
H 24.57  38.544 31.964
C 26.971 38.23  30.57 
H 27.093 38.538 31.605
H 27.904 37.78  30.264
H 26.844 39.136 29.935
