137

Mg 20.806 28.805 30.1  
C 22.176 26.127 31.674
C 17.986 28.47  32.137
H 17.132 28.288 32.729
C 19.424 31.689 28.815
H 18.956 32.594 28.366
C 23.605 29.117 28.08 
H 24.414 29.235 27.419
N 20.121 27.383 31.666
C 20.927 26.47  32.188
C 20.228 25.671 33.306
H 20.132 24.599 33.057
C 18.843 26.413 33.442
H 18.774 27.029 34.347
C 19.001 27.541 32.333
C 17.512 25.568 33.401
H 17.351 25.161 32.399
H 17.519 24.814 34.138
H 16.613 26.161 33.636
C 20.96  25.634 34.682
H 21.179 26.668 35.083
H 21.861 25.173 34.471
C 20.236 24.869 35.68 
H 19.428 24.29  35.254
H 20.852 24.129 36.1  
C 19.696 25.483 37.006
O 20.178 25.246 38.12 
O 18.531 26.212 36.827
N 19.019 29.888 30.372
C 18.002 29.566 31.296
C 16.909 30.516 31.23 
C 17.246 31.404 30.211
C 18.599 31.025 29.712
C 15.661 30.611 31.991
H 15.906 30.624 33.063
H 15.322 31.66  31.916
H 14.889 29.86  31.675
C 16.552 32.611 29.618
H 17.197 33.399 29.307
C 15.274 32.705 29.43 
H 14.59  31.909 29.676
H 14.89  33.578 29.064
N 21.376 30.109 28.733
C 20.679 31.309 28.367
C 21.478 32.109 27.418
C 22.693 31.383 27.236
C 22.595 30.087 28.003
C 21.016 33.392 26.752
H 21.461 33.504 25.747
H 19.973 33.313 26.547
H 21.307 34.27  27.318
C 23.914 31.735 26.47 
H 24.358 30.834 26.101
H 23.673 32.253 25.588
C 24.983 32.376 27.371
H 25.405 31.673 28.08 
H 25.84  32.824 26.796
H 24.533 33.178 27.922
N 22.498 27.875 29.797
C 23.58  28.091 29.026
C 24.545 27.033 29.162
C 23.994 26.294 30.197
C 22.799 26.83  30.612
C 25.924 26.692 28.45 
H 26.205 27.546 27.856
H 26.657 26.563 29.269
H 25.946 25.733 27.895
C 24.352 25.228 31.013
O 25.366 24.55  30.935
C 23.197 25.044 32.056
H 23.48  25.158 33.024
C 22.625 23.661 31.953
O 22.193 23.179 30.882
O 22.513 23.02  33.138
C 22.028 21.639 33.068
H 21.327 21.463 32.223
H 22.939 21.013 32.996
H 21.398 21.406 33.951
C 17.936 26.908 37.982
H 18.467 27.678 38.533
H 17.697 26.241 38.825
C 16.553 27.457 37.523
H 15.75  26.799 37.809
C 16.146 28.677 36.983
C 17.147 29.625 36.318
H 18.157 29.383 36.679
H 17.158 29.666 35.246
H 16.916 30.598 36.758
C 14.738 28.959 36.488
H 14.06  28.231 36.848
H 14.757 29.001 35.447
C 14.17  30.308 36.982
H 14.876 30.74  37.646
H 13.21  30.089 37.484
C 13.95  31.345 35.93 
H 12.966 31.285 35.436
H 14.704 31.302 35.215
C 13.88  32.835 36.505
H 14.681 33.09  37.141
C 12.578 32.997 37.405
H 11.677 32.657 36.965
H 12.682 32.417 38.255
H 12.354 34.043 37.539
C 13.905 33.819 35.3  
H 13.004 33.566 34.727
H 14.609 33.588 34.588
C 13.896 35.355 35.592
H 13.926 35.511 36.626
H 12.984 35.589 35.146
C 15.034 36.137 34.924
H 15.938 35.477 34.729
H 15.207 36.827 35.711
C 14.654 36.83  33.605
H 13.804 37.466 33.716
C 14.254 35.772 32.531
H 14.907 34.892 32.578
H 13.22  35.548 32.778
H 14.306 36.188 31.505
C 15.891 37.654 33.19 
H 15.708 37.973 32.103
H 16.845 37.094 33.213
C 16.044 38.968 33.968
H 16.97  38.864 34.523
H 15.243 39.114 34.707
C 16.075 40.255 33.042
H 15.202 40.803 33.344
H 15.914 40.071 31.939
C 17.283 41.279 33.167
H 17.407 41.309 34.263
C 16.922 42.659 32.537
H 15.926 42.979 32.794
H 17.66  43.422 32.989
H 17.069 42.695 31.458
C 18.492 40.58  32.596
H 19.264 41.313 32.36 
H 18.907 39.823 33.257
H 18.236 40.076 31.677
