137

Mg 20.964 16.942 27.235
C 21.505 17.459 23.886
C 24.278 17.593 27.804
H 25.376 17.731 28.108
C 20.536 16.115 30.459
H 20.484 15.713 31.516
C 17.876 15.646 26.503
H 16.934 15.279 26.117
N 22.665 17.528 26.06 
C 22.665 17.726 24.69 
C 24.053 18.223 24.172
H 24.392 17.579 23.345
C 24.942 18.    25.41 
H 25.422 18.963 25.6  
C 23.891 17.686 26.511
C 25.902 16.83  25.307
H 25.498 15.929 24.788
H 26.664 17.325 24.714
H 26.487 16.581 26.17 
C 23.932 19.655 23.616
H 23.453 20.277 24.319
H 23.321 19.661 22.72 
C 25.257 20.407 23.098
H 26.063 20.161 23.78 
H 25.546 20.16  22.059
C 25.317 21.904 22.989
O 26.399 22.466 22.996
O 24.063 22.475 23.141
N 22.171 17.062 28.92 
C 23.503 17.43  28.973
C 23.952 17.386 30.375
C 22.898 16.792 31.102
C 21.782 16.709 30.159
C 25.393 17.757 30.849
H 25.92  16.847 30.768
H 25.692 18.663 30.219
H 25.354 18.093 31.848
C 22.773 16.384 32.526
H 21.817 16.481 33.011
C 23.821 16.045 33.341
H 24.836 15.84  32.997
H 23.6   15.81  34.409
N 19.414 16.172 28.33 
C 19.496 15.86  29.614
C 18.252 15.123 30.022
C 17.483 14.953 28.879
C 18.253 15.586 27.813
C 17.965 14.737 31.424
H 18.832 14.225 31.781
H 17.825 15.626 32.009
H 17.055 14.104 31.374
C 16.075 14.404 28.764
H 15.927 13.998 27.793
H 15.888 13.621 29.571
C 14.949 15.395 28.992
H 13.968 14.913 29.181
H 15.245 16.027 29.83 
H 14.971 16.111 28.092
N 19.786 16.692 25.499
C 18.573 16.153 25.315
C 18.2   16.188 23.917
C 19.33  16.652 23.291
C 20.239 16.97  24.306
C 16.954 15.775 23.309
H 16.176 16.571 23.488
H 16.985 15.605 22.151
H 16.677 14.811 23.748
C 19.955 17.048 22.082
O 19.514 17.117 20.946
C 21.316 17.729 22.42 
H 21.162 18.761 22.172
C 22.319 17.017 21.577
O 22.674 15.867 21.598
O 22.788 17.931 20.626
C 23.715 17.394 19.671
H 23.139 16.71  19.02 
H 23.995 18.294 19.043
H 24.568 16.903 20.116
C 24.206 23.823 23.517
H 24.309 24.426 22.618
H 24.844 24.076 24.376
C 22.877 24.314 24.026
H 22.686 24.026 25.019
C 21.93  25.093 23.49 
C 21.894 25.662 22.092
H 21.482 26.695 22.079
H 22.871 25.825 21.592
H 21.324 25.02  21.42 
C 20.739 25.453 24.405
H 20.683 24.718 25.21 
H 19.889 25.359 23.761
C 20.933 26.86  25.098
H 20.211 27.404 24.499
H 21.888 27.268 24.754
C 20.561 27.067 26.6  
H 20.209 26.063 26.979
H 19.706 27.735 26.602
C 21.544 27.631 27.634
H 21.903 28.618 27.24 
C 22.931 26.854 27.472
H 22.804 25.792 27.535
H 23.287 27.005 26.455
H 23.697 27.207 28.215
C 21.031 27.871 29.094
H 21.944 28.073 29.658
H 20.456 26.985 29.434
C 20.106 29.058 29.178
H 19.097 28.7   29.133
H 20.21  29.799 28.346
C 20.284 29.859 30.466
H 20.248 30.925 30.314
H 21.274 29.725 30.845
C 19.257 29.464 31.608
H 19.144 28.33  31.664
C 17.839 29.951 31.202
H 17.172 29.908 32.014
H 17.838 30.97  30.881
H 17.522 29.396 30.309
C 19.618 29.982 33.004
H 19.58  31.082 33.055
H 20.645 29.825 33.288
C 18.807 29.431 34.14 
H 19.469 29.154 34.925
H 18.308 28.501 33.833
C 17.711 30.35  34.738
H 16.864 29.798 34.606
H 17.637 31.291 34.196
C 17.703 30.505 36.267
H 17.736 29.536 36.794
C 16.371 31.115 36.666
H 15.64  30.322 36.475
H 16.278 31.36  37.751
H 16.022 31.905 36.06 
C 18.886 31.324 36.711
H 18.714 31.68  37.763
H 19.88  30.836 36.662
H 19.013 32.196 36.056
