137

Mg 31.137 31.074 34.38 
C 29.994 28.317 32.611
C 34.053 31.021 32.46 
H 34.936 31.026 31.801
C 32.365 33.655 36.168
H 32.684 34.532 36.752
C 28.38  30.935 36.252
H 27.639 30.738 37.06 
N 31.915 29.738 32.79 
C 31.235 28.8   32.21 
C 32.009 28.316 30.982
H 31.997 27.237 31.069
C 33.49  28.851 31.232
H 33.851 29.16  30.237
C 33.161 29.982 32.157
C 34.387 27.752 31.832
H 33.857 27.177 32.62 
H 34.758 27.105 30.998
H 35.295 28.163 32.254
C 31.296 28.814 29.664
H 31.201 29.876 29.515
H 30.275 28.492 29.737
C 31.918 28.232 28.309
H 32.123 29.08  27.602
H 32.867 27.732 28.437
C 31.027 27.153 27.56 
O 31.427 26.594 26.533
O 29.784 26.918 27.982
N 32.948 32.185 34.277
C 34.021 32.021 33.469
C 35.02  32.997 33.795
C 34.44  33.831 34.773
C 33.191 33.209 35.143
C 36.391 33.158 33.106
H 36.289 33.646 32.21 
H 36.992 33.845 33.735
H 36.888 32.149 33.068
C 34.956 35.043 35.419
H 34.554 35.333 36.407
C 35.833 35.939 34.9  
H 36.163 35.891 33.829
H 36.105 36.864 35.429
N 30.473 32.149 35.996
C 31.107 33.207 36.558
C 30.224 33.7   37.607
C 28.997 32.968 37.571
C 29.306 31.943 36.572
C 30.597 34.879 38.503
H 31.618 34.773 38.899
H 30.585 35.875 38.006
H 29.953 34.825 39.354
C 27.749 33.197 38.356
H 27.552 32.299 38.962
H 27.81  34.009 39.073
C 26.493 33.445 37.581
H 25.834 33.853 38.326
H 26.629 34.096 36.721
H 26.117 32.508 37.337
N 29.516 29.831 34.572
C 28.427 29.876 35.388
C 27.508 28.779 35.124
C 28.11  28.153 33.989
C 29.335 28.837 33.706
C 26.215 28.51  35.806
H 25.401 29.149 35.478
H 25.98  27.427 35.586
H 26.295 28.606 36.867
C 27.929 27.011 33.028
O 27.019 26.154 32.907
C 29.175 27.12  32.048
H 28.832 27.338 31.012
C 29.986 25.806 32.158
O 30.933 25.535 32.82 
O 29.438 25.027 31.143
C 30.099 23.747 30.824
H 30.507 23.194 31.67 
H 29.403 23.214 30.113
H 30.988 23.941 30.223
C 28.929 26.051 27.162
H 29.249 25.02  27.185
H 28.987 26.321 26.144
C 27.573 26.128 27.921
H 27.316 27.155 28.078
C 26.685 25.154 28.161
C 26.836 23.72  27.89 
H 26.85  23.265 28.853
H 26.113 23.341 27.219
H 27.815 23.492 27.394
C 25.359 25.575 28.807
H 25.423 26.525 29.31 
H 25.275 24.825 29.596
C 24.128 25.456 27.947
H 24.008 24.466 27.559
H 24.191 26.188 27.112
C 22.839 25.829 28.68 
H 22.933 26.101 29.771
H 22.313 24.887 28.675
C 21.916 26.736 27.898
H 22.043 26.425 26.851
C 22.39  28.245 27.973
H 23.108 28.477 27.197
H 21.604 28.955 27.901
H 22.91  28.428 28.947
C 20.415 26.682 28.329
H 19.969 25.74  28.287
H 19.667 27.096 27.628
C 19.989 27.237 29.693
H 19.431 28.174 29.508
H 20.848 27.584 30.228
C 19.265 26.255 30.638
H 19.541 25.242 30.307
H 18.245 26.342 30.363
C 19.582 26.463 32.133
H 19.576 27.521 32.317
C 20.975 25.714 32.424
H 21.078 25.489 33.513
H 21.239 24.954 31.731
H 21.805 26.411 32.372
C 18.381 25.869 32.951
H 18.24  24.764 32.947
H 17.456 26.213 32.493
C 18.424 26.284 34.47 
H 17.697 27.008 34.685
H 19.447 26.442 34.77 
C 18.095 25.023 35.31 
H 18.938 24.355 35.111
H 17.212 24.416 34.98 
C 17.952 25.199 36.937
H 17.498 26.237 37.121
C 19.324 25.115 37.662
H 19.048 25.275 38.71 
H 19.797 24.153 37.532
H 19.972 25.991 37.431
C 16.912 24.206 37.531
H 17.286 23.217 37.74 
H 16.522 24.563 38.507
H 16.084 24.199 36.947
