137

Mg 24.231 31.204 35.099
C 23.18  31.619 38.329
C 21.297 32.381 33.948
H 20.325 32.682 33.674
C 25.598 31.36  31.917
H 26.039 31.401 30.893
C 27.304 30.073 36.309
H 28.159 29.535 36.608
N 22.495 31.894 36.015
C 22.185 32.03  37.378
C 20.807 32.699 37.603
H 20.302 32.089 38.379
C 20.126 32.439 36.197
H 19.765 33.425 35.875
C 21.383 32.156 35.312
C 19.024 31.322 36.212
H 19.267 30.418 36.75 
H 18.297 31.871 36.763
H 18.761 31.171 35.19 
C 20.969 34.157 38.161
H 21.095 34.886 37.376
H 21.944 34.088 38.73 
C 19.76  34.554 39.079
H 19.082 33.693 39.181
H 20.144 34.72  40.064
C 19.035 35.807 38.665
O 19.466 36.96  38.765
O 17.814 35.47  38.212
N 23.659 31.837 33.223
C 22.408 32.39  33.05 
C 22.275 32.842 31.662
C 23.45  32.445 30.988
C 24.342 31.9   32.058
C 21.117 33.574 31.086
H 20.207 33.415 31.625
H 21.378 34.645 31.037
H 20.933 33.174 30.104
C 23.904 32.708 29.603
H 24.761 32.14  29.232
C 23.406 33.484 28.602
H 22.702 34.279 28.86 
H 23.817 33.584 27.549
N 26.102 30.775 34.232
C 26.418 30.819 32.887
C 27.725 30.255 32.634
C 28.272 29.864 33.943
C 27.199 30.239 34.9  
C 28.396 30.133 31.241
H 28.8   31.015 30.748
H 29.34  29.544 31.301
H 27.625 29.693 30.572
C 29.697 29.36  34.24 
H 29.726 29.075 35.288
H 29.895 28.483 33.583
C 30.766 30.427 33.829
H 30.367 31.385 34.291
H 31.811 30.177 34.157
H 30.749 30.56  32.758
N 25.066 30.81  36.919
C 26.338 30.43  37.33 
C 26.473 30.433 38.749
C 25.194 30.797 39.185
C 24.414 31.093 38.036
C 27.666 30.122 39.61 
H 28.556 30.714 39.294
H 27.464 30.258 40.657
H 27.772 29.103 39.397
C 24.468 31.039 40.328
O 24.746 30.965 41.515
C 23.039 31.564 39.863
H 22.833 32.56  40.25 
C 22.142 30.479 40.341
O 22.288 29.272 40.158
O 21.006 31.054 40.98 
C 19.927 30.222 41.46 
H 19.081 30.927 41.695
H 19.571 29.493 40.661
H 20.273 29.521 42.303
C 17.12  36.545 37.651
H 17.848 37.04  36.986
H 16.714 37.244 38.351
C 15.915 36.239 36.721
H 15.671 37.001 36.001
C 15.044 35.217 36.836
C 14.896 34.194 37.934
H 13.924 34.108 38.362
H 15.12  33.223 37.495
H 15.432 34.548 38.779
C 13.913 35.327 35.863
H 13.426 36.217 36.197
H 13.268 34.491 36.037
C 14.191 35.317 34.305
H 13.606 34.532 33.836
H 15.24  35.128 34.115
C 13.867 36.624 33.592
H 13.956 37.481 34.247
H 12.816 36.517 33.458
C 14.668 36.913 32.335
H 15.736 36.99  32.645
C 14.226 38.307 31.661
H 15.03  38.673 31.036
H 13.328 38.212 31.018
H 14.137 39.06  32.441
C 14.527 35.739 31.26 
H 14.844 34.813 31.777
H 15.293 35.904 30.443
C 13.122 35.319 30.674
H 13.046 35.365 29.6  
H 12.368 36.053 30.877
C 12.457 34.009 31.271
H 11.566 34.356 31.79 
H 13.068 33.56  32.119
C 11.912 33.041 30.152
H 11.216 33.545 29.472
C 10.971 32.062 30.894
H 10.56  31.249 30.238
H 11.535 31.596 31.649
H 10.116 32.673 31.286
C 12.951 32.342 29.298
H 13.497 31.702 29.957
H 13.622 33.109 29.058
C 12.436 31.546 28.1  
H 11.343 31.444 28.135
H 12.809 30.587 28.249
C 12.897 32.06  26.715
H 13.454 31.267 26.218
H 13.455 32.978 26.768
C 11.728 32.307 25.717
H 11.278 31.356 25.662
C 12.259 32.703 24.312
H 11.429 32.988 23.527
H 12.79  33.666 24.399
H 12.919 31.885 24.027
C 10.701 33.342 26.147
H  9.908 33.304 25.472
H 10.333 33.081 27.134
H 11.167 34.336 26.171
