137

Mg 26.899 32.098 39.453
C 25.418 29.032 39.667
C 23.876 33.343 38.059
H 22.99  33.783 37.574
C 28.058 35.201 39.784
H 28.492 36.184 39.907
C 29.884 30.747 40.559
H 30.802 30.217 40.787
N 24.88  31.295 38.983
C 24.487 30.014 39.212
C 23.023 29.802 38.775
H 23.008 28.98  38.034
C 22.752 31.117 37.986
H 21.874 31.625 38.277
C 23.909 31.992 38.289
C 22.491 30.915 36.485
H 22.251 31.908 36.083
H 23.365 30.462 35.93 
H 21.62  30.265 36.348
C 22.086 29.646 39.959
H 22.14  30.609 40.427
H 22.496 28.968 40.691
C 20.671 29.191 39.573
H 20.722 29.253 38.47 
H 20.56  28.208 39.965
C 19.561 29.931 40.319
O 18.785 29.438 41.114
O 19.443 31.238 39.812
N 26.006 34.02  39.112
C 24.812 34.285 38.468
C 24.675 35.737 38.286
C 25.856 36.346 38.862
C 26.711 35.146 39.306
C 23.427 36.407 37.721
H 23.251 35.988 36.745
H 22.555 36.077 38.371
H 23.348 37.451 37.494
C 26.308 37.715 39.064
H 27.383 37.846 39.218
C 25.523 38.822 39.003
H 24.484 38.867 38.643
H 25.947 39.878 39.089
N 28.723 32.852 40.121
C 28.963 34.159 40.234
C 30.361 34.319 40.683
C 30.924 33.019 40.761
C 29.838 32.144 40.504
C 31.077 35.627 40.841
H 31.888 35.408 41.539
H 31.503 36.076 39.951
H 30.446 36.379 41.325
C 32.326 32.649 41.093
H 32.679 31.897 40.447
H 32.965 33.483 41.056
C 32.315 32.162 42.535
H 33.203 31.608 42.576
H 32.456 33.069 43.171
H 31.497 31.459 42.928
N 27.529 30.33  40.021
C 28.767 29.884 40.433
C 28.748 28.489 40.667
C 27.466 28.108 40.374
C 26.772 29.236 39.953
C 29.792 27.647 41.258
H 30.121 27.866 42.246
H 29.726 26.54  41.122
H 30.569 27.893 40.558
C 26.497 27.002 40.423
O 26.539 25.869 40.857
C 25.255 27.532 39.706
H 24.446 27.192 40.245
C 25.205 26.892 38.385
O 26.146 26.817 37.569
O 23.966 26.275 38.246
C 23.968 25.316 37.108
H 23.012 24.694 37.109
H 24.143 25.809 36.161
H 24.746 24.621 37.352
C 18.34  32.083 40.284
H 18.41  32.127 41.346
H 17.507 31.368 40.145
C 18.351 33.455 39.52 
H 18.185 33.248 38.504
C 18.497 34.686 40.031
C 18.624 35.034 41.48 
H 17.979 35.87  41.716
H 18.275 34.213 42.122
H 19.651 35.308 41.658
C 18.426 35.797 39.013
H 19.152 35.579 38.238
H 18.839 36.701 39.427
C 17.037 36.226 38.453
H 17.005 37.299 38.492
H 16.249 35.81  39.157
C 16.746 35.68  37.019
H 15.797 35.228 37.148
H 17.431 34.924 36.66 
C 16.569 36.655 35.922
H 15.86  37.447 36.243
C 15.847 35.972 34.672
H 15.836 36.814 34.027
H 16.417 35.102 34.276
H 14.891 35.662 35.1  
C 17.951 37.296 35.552
H 18.17  37.848 36.506
H 17.697 38.015 34.81 
C 19.143 36.445 35.05 
H 18.824 35.401 34.958
H 19.949 36.382 35.848
C 19.814 36.975 33.805
H 20.806 37.167 34.189
H 19.456 37.938 33.538
C 19.955 36.034 32.536
H 20.303 35.072 32.895
C 21.105 36.641 31.665
H 21.197 36.072 30.816
H 20.894 37.658 31.358
H 22.078 36.507 32.24 
C 18.594 35.828 31.802
H 18.538 36.629 30.992
H 17.799 35.868 32.504
C 18.531 34.476 31.124
H 18.043 33.761 31.817
H 19.612 34.188 31.043
C 17.989 34.537 29.683
H 18.664 34.196 28.892
H 17.678 35.576 29.377
C 16.585 33.8   29.449
H 16.739 32.769 29.645
C 16.167 33.693 28.035
H 15.498 32.857 28.018
H 15.639 34.568 27.581
H 17.003 33.331 27.41 
C 15.397 34.287 30.329
H 14.442 33.732 30.122
H 15.497 34.253 31.347
H 15.215 35.354 30.173
