137

Mg 37.211 31.576 35.107
C 34.388 29.613 34.736
C 38.218 30.498 31.912
H 38.641 30.157 30.971
C 39.979 33.604 35.286
H 40.813 34.319 35.363
C 36.192 32.6   38.256
H 35.792 33.003 39.212
N 36.434 30.171 33.612
C 35.243 29.46  33.685
C 35.108 28.545 32.485
H 35.001 27.487 32.78 
C 36.498 28.629 31.815
H 36.3   28.849 30.795
C 37.158 29.843 32.498
C 37.33  27.35  32.135
H 38.233 27.419 31.53 
H 37.612 27.303 33.172
H 36.778 26.46  31.903
C 33.863 28.858 31.656
H 33.691 29.925 31.516
H 33.068 28.501 32.306
C 33.856 28.16  30.269
H 34.106 28.949 29.592
H 34.609 27.327 30.173
C 32.507 27.685 29.938
O 32.166 26.504 30.123
O 31.725 28.634 29.333
N 38.839 32.025 33.846
C 39.045 31.511 32.551
C 40.171 32.151 31.88 
C 40.748 32.931 32.901
C 39.883 32.827 34.135
C 40.555 31.995 30.476
H 39.807 32.496 29.826
H 41.465 32.617 30.322
H 40.654 30.959 30.265
C 41.971 33.794 32.822
H 42.154 34.267 31.863
C 42.86  33.962 33.825
H 42.77  33.491 34.818
H 43.721 34.653 33.636
N 37.997 32.824 36.491
C 39.118 33.612 36.377
C 39.328 34.372 37.631
C 38.195 34.135 38.422
C 37.334 33.199 37.665
C 40.477 35.317 37.858
H 40.86  35.414 38.886
H 41.359 34.988 37.314
H 40.218 36.295 37.416
C 38.136 34.632 39.84 
H 37.826 33.813 40.467
H 39.074 35.004 40.182
C 37.229 35.776 40.172
H 37.262 35.929 41.244
H 37.497 36.729 39.633
H 36.244 35.46  39.887
N 35.672 31.214 36.307
C 35.419 31.672 37.6  
C 34.148 31.039 37.984
C 33.756 30.241 36.936
C 34.689 30.417 35.924
C 33.413 31.32  39.299
H 32.388 31.68  39.106
H 33.305 30.375 39.846
H 33.915 32.095 39.835
C 32.646 29.363 36.511
O 31.563 29.111 37.063
C 33.11  28.852 35.08 
H 32.282 29.06  34.423
C 33.314 27.312 35.178
O 34.05  26.672 35.894
O 32.54  26.792 34.137
C 32.561 25.3   34.029
H 31.746 25.081 33.315
H 33.488 24.823 33.643
H 32.186 24.86  34.967
C 30.49  28.085 28.802
H 29.851 27.742 29.629
H 30.724 27.337 28.024
C 29.904 29.212 28.005
H 30.6   29.54  27.196
C 28.826 30.016 28.192
C 27.809 29.919 29.3  
H 26.869 29.6   28.885
H 28.164 29.179 30.022
H 27.735 30.841 29.798
C 28.662 31.33  27.379
H 29.508 31.462 26.745
H 28.711 32.195 28.108
C 27.339 31.162 26.592
H 26.964 30.139 26.632
H 27.528 31.31  25.546
C 26.237 32.059 27.13 
H 26.489 32.553 28.085
H 25.404 31.438 27.409
C 25.812 33.005 25.998
H 25.661 32.338 25.127
C 26.968 34.008 25.641
H 27.405 34.455 26.514
H 27.792 33.537 25.113
H 26.501 34.813 24.992
C 24.54  33.85  26.296
H 24.439 34.688 25.563
H 24.677 34.298 27.281
C 23.241 33.033 26.383
H 23.471 31.982 26.213
H 22.601 33.301 25.555
C 22.414 33.174 27.713
H 21.262 33.247 27.539
H 22.644 34.162 28.128
C 22.581 31.951 28.683
H 23.592 31.584 28.604
C 21.495 30.867 28.431
H 21.48  30.447 27.434
H 21.611 30.012 29.08 
H 20.537 31.228 28.475
C 22.393 32.407 30.149
H 22.223 31.455 30.629
H 21.441 32.93  30.231
C 23.531 33.26  30.768
H 23.196 34.26  30.87 
H 24.38  33.302 30.131
C 24.018 32.765 32.194
H 23.368 31.985 32.55 
H 23.883 33.708 32.721
C 25.409 32.161 32.308
H 26.218 32.957 32.046
C 25.556 30.845 31.467
H 25.719 31.257 30.427
H 26.413 30.296 31.807
H 24.745 30.183 31.579
C 25.74  31.908 33.772
H 24.996 31.346 34.303
H 26.624 31.284 33.841
H 25.956 32.827 34.267
