137

Mg 26.56  30.554 40.146
C 25.156 27.438 40.61 
C 23.839 31.501 38.283
H 22.986 31.831 37.594
C 27.748 33.69  40.029
H 28.17  34.686 40.079
C 29.106 29.671 42.425
H 29.975 29.329 42.986
N 24.756 29.629 39.568
C 24.36  28.334 39.859
C 22.874 28.093 39.422
H 22.843 27.06  39.034
C 22.595 29.257 38.355
H 21.709 29.788 38.57 
C 23.822 30.202 38.695
C 22.706 28.872 36.87 
H 22.552 29.654 36.18 
H 23.72  28.563 36.686
H 21.995 27.996 36.704
C 21.953 28.185 40.645
H 22.057 29.143 41.125
H 22.248 27.382 41.289
C 20.496 27.874 40.297
H 20.306 27.799 39.186
H 20.331 26.944 40.831
C 19.437 28.866 40.728
O 18.688 28.79  41.667
O 19.531 29.88  39.853
N 25.98  32.234 39.246
C 24.801 32.431 38.538
C 24.832 33.845 37.987
C 26.063 34.428 38.386
C 26.646 33.417 39.253
C 23.752 34.368 37.098
H 24.024 35.224 36.526
H 23.469 33.575 36.42 
H 22.917 34.629 37.696
C 26.586 35.801 38.088
H 27.625 35.885 38.279
C 25.9   36.84  37.591
H 24.879 36.81  37.303
H 26.422 37.801 37.444
N 28.092 31.541 41.11 
C 28.39  32.845 40.912
C 29.555 33.207 41.679
C 29.964 32.043 42.362
C 29.03  31.036 41.99 
C 30.342 34.495 41.52 
H 29.742 35.384 41.702
H 31.277 34.424 42.047
H 30.714 34.528 40.448
C 31.259 32.027 43.174
H 31.616 30.996 43.25 
H 32.039 32.573 42.693
C 31.088 32.524 44.648
H 32.006 32.716 45.2  
H 30.445 33.46  44.608
H 30.45  31.879 45.196
N 27.096 28.918 41.208
C 28.225 28.646 42.045
C 28.017 27.271 42.575
C 26.82  26.769 42.018
C 26.304 27.753 41.204
C 28.842 26.704 43.655
H 28.863 27.285 44.56 
H 28.303 25.833 43.899
H 29.833 26.568 43.332
C 26.019 25.64  41.985
O 26.189 24.561 42.501
C 24.846 26.04  41.065
H 23.853 25.92  41.412
C 24.949 25.02  39.955
O 25.575 25.102 38.868
O 24.154 23.945 40.217
C 24.159 22.767 39.359
H 23.692 21.933 39.894
H 23.594 22.974 38.454
H 25.236 22.481 39.149
C 18.836 31.108 40.219
H 19.316 31.541 41.072
H 17.738 30.844 40.435
C 19.05  32.042 39.07 
H 18.506 31.699 38.191
C 19.783 33.087 38.899
C 20.72  33.697 39.947
H 21.778 33.439 39.702
H 20.687 34.712 39.988
H 20.556 33.356 40.965
C 19.761 33.747 37.543
H 19.203 33.295 36.731
H 20.763 33.806 37.214
C 19.411 35.211 37.53 
H 20.331 35.805 37.753
H 18.661 35.363 38.289
C 18.764 35.722 36.178
H 18.042 36.422 36.476
H 18.306 34.921 35.644
C 19.654 36.627 35.171
H 20.054 37.44  35.716
C 18.665 37.268 34.014
H 19.419 37.861 33.444
H 18.254 36.518 33.376
H 17.962 37.997 34.436
C 20.85  35.94  34.556
H 21.664 35.926 35.361
H 21.335 36.532 33.744
C 20.665 34.517 33.983
H 19.624 34.527 33.606
H 20.821 33.799 34.791
C 21.656 34.376 32.782
H 22.342 33.717 33.291
H 21.998 35.338 32.464
C 21.269 33.556 31.518
H 20.81  32.636 31.945
C 22.528 33.163 30.719
H 22.387 32.557 29.79 
H 22.962 34.137 30.432
H 23.188 32.542 31.407
C 20.099 34.344 30.707
H 20.557 35.23  30.271
H 19.345 34.643 31.482
C 19.378 33.494 29.639
H 19.745 32.503 29.674
H 19.617 33.837 28.613
C 17.846 33.407 29.8  
H 17.273 33.842 29.012
H 17.51  33.844 30.739
C 17.296 31.923 29.87 
H 17.451 31.438 28.948
C 15.742 31.998 29.997
H 15.474 31.006 30.419
H 15.424 32.674 30.78 
H 15.266 32.294 29.055
C 17.974 31.077 31.028
H 18.148 31.695 31.881
H 17.408 30.208 31.35 
H 18.973 30.801 30.724
