137

Mg 24.436 28.74  37.438
C 23.182 25.865 38.66 
C 21.192 29.728 36.618
H 20.178 30.092 36.46 
C 25.61  31.8   36.292
H 25.96  32.704 35.857
C 27.429 27.972 38.727
H 28.387 27.629 39.062
N 22.455 27.908 37.599
C 22.2   26.691 38.247
C 20.707 26.36  38.243
H 20.505 25.371 37.856
C 20.101 27.394 37.3  
H 19.305 27.861 37.795
C 21.27  28.455 37.233
C 19.731 26.81  35.945
H 19.459 27.549 35.244
H 20.503 26.123 35.55 
H 18.879 26.144 36.173
C 20.198 26.354 39.724
H 20.184 27.403 40.197
H 20.779 25.723 40.379
C 18.854 25.665 39.734
H 18.659 25.265 38.725
H 18.898 24.805 40.437
C 17.629 26.48  40.176
O 17.242 26.56  41.364
O 17.075 27.142 39.125
N 23.495 30.517 36.588
C 22.178 30.645 36.24 
C 21.965 31.947 35.548
C 23.235 32.549 35.523
C 24.161 31.648 36.168
C 20.649 32.472 34.991
H 19.864 31.947 35.482
H 20.52  33.57  35.299
H 20.396 32.434 33.893
C 23.541 33.896 35.079
H 24.439 34.262 35.427
C 22.886 34.713 34.25 
H 22.053 34.385 33.564
H 23.316 35.728 34.04 
N 26.211 29.751 37.523
C 26.509 30.954 36.983
C 27.821 31.304 37.366
C 28.404 30.244 38.13 
C 27.342 29.231 38.097
C 28.562 32.594 37.007
H 29.294 32.312 36.238
H 27.98  33.451 36.623
H 29.095 33.011 37.824
C 29.788 30.129 38.673
H 30.196 29.253 38.223
H 30.429 30.936 38.332
C 29.913 30.03  40.183
H 29.696 29.019 40.519
H 30.904 30.265 40.546
H 29.129 30.686 40.682
N 25.195 27.273 38.345
C 26.452 26.959 38.729
C 26.64  25.597 39.169
C 25.317 25.171 39.157
C 24.483 26.2   38.663
C 27.866 25.054 39.735
H 27.628 24.074 40.178
H 28.526 24.955 38.883
H 28.332 25.659 40.474
C 24.506 23.991 39.522
O 24.839 22.915 39.996
C 23.029 24.401 39.191
H 22.495 24.377 40.142
C 22.448 23.344 38.231
O 22.473 23.359 37.03 
O 21.59  22.5   38.923
C 20.429 21.897 38.253
H 20.434 22.089 37.193
H 20.487 20.816 38.353
H 19.409 22.185 38.577
C 16.002 28.067 39.347
H 16.246 28.76  40.149
H 14.99  27.676 39.597
C 15.956 28.743 38.002
H 15.489 28.138 37.277
C 16.581 29.88  37.759
C 17.409 30.804 38.652
H 18.078 30.172 39.28 
H 18.101 31.316 38.02 
H 16.771 31.496 39.241
C 16.218 30.424 36.359
H 15.702 29.716 35.694
H 17.124 30.573 35.793
C 15.372 31.717 36.375
H 15.295 32.088 37.366
H 14.348 31.557 36.004
C 15.795 32.814 35.262
H 15.14  32.679 34.436
H 16.82  32.753 34.808
C 15.71  34.319 35.805
H 14.839 34.382 36.427
C 15.657 35.444 34.735
H 16.427 35.271 34.026
H 14.739 35.332 34.203
H 15.752 36.462 35.133
C 16.814 34.65  36.916
H 16.878 33.832 37.624
H 16.469 35.539 37.494
C 18.299 34.675 36.515
H 18.413 34.68  35.427
H 18.8   33.729 36.773
C 18.992 35.954 37.135
H 19.642 35.726 37.97 
H 18.227 36.605 37.464
C 19.937 36.721 36.147
H 20.794 36.046 35.737
C 20.496 38.01  36.825
H 21.072 38.657 36.146
H 19.622 38.581 37.182
H 21.03  37.681 37.707
C 19.124 37.262 34.858
H 18.512 38.091 35.168
H 18.363 36.616 34.488
C 20.053 37.714 33.662
H 20.869 37.018 33.621
H 20.381 38.701 33.818
C 19.289 37.828 32.333
H 19.374 38.837 31.898
H 18.25  37.646 32.574
C 19.736 36.789 31.224
H 19.699 35.714 31.661
C 21.039 37.172 30.481
H 21.895 36.937 31.124
H 21.262 36.712 29.504
H 21.053 38.239 30.283
C 18.605 36.744 30.195
H 18.915 36.091 29.339
H 17.686 36.252 30.628
H 18.414 37.734 29.904
