137

Mg 35.161 28.677 34.525
C 31.922 27.908 35.056
C 34.904 27.653 31.248
H 34.693 27.293 30.255
C 38.465 29.461 33.901
H 39.537 29.711 33.841
C 35.417 30.051 37.667
H 35.476 30.677 38.609
N 33.647 27.859 33.357
C 32.32  27.642 33.786
C 31.468 27.089 32.639
H 31.048 26.125 32.89 
C 32.615 26.593 31.605
H 32.424 26.858 30.559
C 33.8   27.406 32.072
C 32.927 25.036 31.554
H 33.866 25.045 31.05 
H 33.072 24.503 32.443
H 32.181 24.511 30.912
C 30.322 28.085 32.223
H 30.832 29.003 31.952
H 29.563 28.269 33.001
C 29.527 27.744 30.98 
H 29.535 28.459 30.142
H 29.875 26.802 30.592
C 28.086 27.335 31.128
O 27.709 26.451 31.839
O 27.228 28.097 30.288
N 36.579 28.51  32.87 
C 36.195 28.2   31.591
C 37.332 28.307 30.665
C 38.432 28.78  31.427
C 37.89  28.837 32.791
C 37.294 28.077 29.179
H 36.318 27.996 28.791
H 37.622 28.907 28.557
H 37.927 27.205 28.859
C 39.797 29.26  31.029
H 39.789 29.687 30.022
C 40.957 29.111 31.679
H 41.05  28.63  32.686
H 41.894 29.184 31.147
N 36.623 29.646 35.577
C 37.856 29.871 35.123
C 38.668 30.565 36.161
C 37.813 30.886 37.145
C 36.555 30.192 36.83 
C 40.196 31.026 36.007
H 40.473 31.77  36.771
H 40.773 30.115 36.176
H 40.399 31.446 34.973
C 38.113 31.703 38.432
H 37.687 31.259 39.282
H 39.184 31.537 38.685
C 37.794 33.118 38.316
H 37.532 33.503 39.322
H 38.679 33.636 37.945
H 36.946 33.407 37.694
N 33.988 28.888 36.078
C 34.162 29.422 37.35 
C 32.974 29.331 38.16 
C 32.026 28.611 37.27 
C 32.698 28.459 36.046
C 32.875 29.843 39.621
H 31.891 29.705 39.898
H 33.631 29.281 40.113
H 33.064 30.919 39.784
C 30.688 28.089 37.192
O 29.842 28.082 38.061
C 30.558 27.719 35.679
H 29.87  28.47  35.263
C 30.041 26.303 35.65 
O 30.673 25.334 35.997
O 28.879 26.175 34.989
C 28.475 24.826 34.591
H 29.183 24.398 33.847
H 28.647 24.292 35.535
H 27.459 24.807 34.18 
C 25.79  27.706 30.386
H 25.433 27.681 31.386
H 25.718 26.654 29.968
C 25.027 28.621 29.503
H 25.254 28.535 28.477
C 24.042 29.557 29.762
C 23.611 29.764 31.165
H 23.534 28.776 31.635
H 24.419 30.414 31.571
H 22.628 30.4   31.282
C 23.509 30.396 28.649
H 24.155 30.309 27.799
H 23.554 31.452 28.961
C 22.065 30.067 28.202
H 21.591 31.007 27.99 
H 21.635 29.598 29.074
C 21.931 29.173 26.924
H 21.371 28.373 27.336
H 22.816 28.626 26.6  
C 21.215 29.731 25.591
H 20.466 30.527 25.916
C 20.268 28.646 24.915
H 19.887 29.009 23.965
H 20.808 27.725 24.752
H 19.514 28.404 25.59 
C 22.208 30.312 24.632
H 21.653 30.707 23.76 
H 22.858 29.422 24.362
C 22.992 31.549 25.204
H 24.085 31.405 25.276
H 22.518 31.779 26.161
C 22.81  32.83  24.265
H 22.486 32.577 23.184
H 23.739 33.318 24.173
C 21.761 33.949 24.708
H 21.968 34.18  25.789
C 20.283 33.544 24.704
H 19.913 33.011 23.801
H 20.096 32.908 25.596
H 19.626 34.41  24.86 
C 21.96  35.18  23.817
H 21.056 35.822 23.991
H 21.896 34.989 22.763
C 23.182 36.083 24.097
H 23.713 36.324 23.174
H 23.916 35.497 24.695
C 22.804 37.363 24.811
H 23.376 37.489 25.68 
H 21.796 37.375 25.184
C 22.971 38.683 23.945
H 22.618 38.528 22.969
C 24.438 39.128 23.766
H 24.739 39.585 24.7  
H 25.103 38.248 23.512
H 24.469 39.854 22.979
C 22.145 39.914 24.414
H 22.371 40.827 23.889
H 21.056 39.71  24.316
H 22.217 40.231 25.426
