137

Mg 37.009 34.509 35.249
C 33.59  34.962 36.036
C 36.15  31.544 33.582
H 35.999 30.694 32.963
C 40.265 34.055 34.482
H 41.297 33.83  34.15 
C 37.721 37.54  36.678
H 37.836 38.534 37.038
N 35.095 33.445 34.735
C 33.816 33.89  35.148
C 32.76  32.899 34.727
H 32.12  32.568 35.537
C 33.642 31.753 34.044
H 33.246 31.68  32.982
C 35.084 32.317 34.071
C 33.498 30.398 34.698
H 34.088 30.432 35.61 
H 32.405 30.188 34.858
H 33.839 29.765 33.881
C 31.824 33.672 33.882
H 32.388 33.878 32.915
H 31.47  34.596 34.301
C 30.593 32.874 33.552
H 30.728 32.531 32.596
H 30.449 32.034 34.221
C 29.323 33.62  33.471
O 29.264 34.823 33.296
O 28.194 32.795 33.485
N 37.998 33.114 34.154
C 37.51  31.94  33.536
C 38.596 31.269 32.839
C 39.754 31.941 33.192
C 39.364 33.106 34.021
C 38.251 30.056 31.933
H 37.969 30.424 30.998
H 39.043 29.332 31.945
H 37.406 29.459 32.321
C 41.173 31.622 32.791
H 41.971 32.051 33.343
C 41.478 30.998 31.624
H 40.746 30.628 30.887
H 42.562 30.921 31.331
N 38.769 35.546 35.653
C 40.026 35.181 35.262
C 40.996 36.229 35.66 
C 40.176 37.229 36.22 
C 38.808 36.814 36.127
C 42.474 36.222 35.443
H 43.115 36.758 36.241
H 42.822 35.202 35.24 
H 42.672 36.802 34.56 
C 40.654 38.562 36.758
H 40.512 38.669 37.868
H 41.774 38.504 36.767
C 40.405 39.842 35.973
H 40.727 40.627 36.635
H 41.009 39.92  35.101
H 39.398 39.901 35.642
N 35.967 35.906 36.233
C 36.426 37.092 36.82 
C 35.343 37.745 37.542
C 34.224 36.946 37.226
C 34.649 35.853 36.437
C 35.351 39.035 38.372
H 35.137 38.899 39.432
H 36.325 39.58  38.352
H 34.686 39.714 37.851
C 32.783 36.943 37.353
O 31.954 37.783 37.797
C 32.34  35.519 36.722
H 31.584 35.731 36.018
C 31.846 34.641 37.742
O 32.44  34.114 38.646
O 30.466 34.457 37.607
C 29.743 33.589 38.546
H 28.717 33.471 38.146
H 30.194 32.575 38.337
H 29.689 33.904 39.525
C 27.009 33.473 33.046
H 27.05  33.945 32.041
H 26.674 34.244 33.74 
C 25.836 32.496 32.83 
H 25.47  32.    33.716
C 25.227 32.096 31.675
C 25.802 32.428 30.359
H 26.899 32.382 30.342
H 25.585 31.629 29.6  
H 25.476 33.368 29.946
C 24.071 31.108 31.727
H 24.016 30.721 32.713
H 24.432 30.288 31.086
C 22.729 31.425 31.046
H 22.404 30.645 30.322
H 22.832 32.331 30.502
C 21.604 31.531 32.097
H 21.966 31.359 33.128
H 20.871 30.732 31.817
C 20.885 32.9   32.219
H 20.914 33.431 31.245
C 21.765 33.884 33.087
H 21.384 34.885 33.224
H 22.054 33.485 34.011
H 22.785 33.922 32.538
C 19.364 32.879 32.766
H 18.753 32.413 31.963
H 18.871 33.838 32.907
C 19.111 32.211 34.144
H 18.698 32.867 34.872
H 20.104 31.834 34.489
C 18.148 30.895 34.021
H 18.642 29.981 34.431
H 18.01  30.743 32.99 
C 16.777 30.96  34.652
H 16.385 31.988 34.377
C 16.85  30.937 36.23 
H 17.356 30.02  36.614
H 17.4   31.838 36.525
H 15.83  31.047 36.63 
C 15.861 29.849 34.085
H 14.997 29.804 34.803
H 16.385 28.949 34.215
C 15.234 30.047 32.687
H 15.951 29.56  31.949
H 15.227 31.073 32.338
C 13.829 29.398 32.534
H 13.158 30.241 32.329
H 13.478 28.947 33.367
C 13.814 28.245 31.423
H 14.642 27.544 31.596
C 14.191 28.782 30.059
H 14.444 27.878 29.591
H 13.275 29.288 29.652
H 15.075 29.418 30.064
C 12.527 27.384 31.421
H 12.599 26.621 30.709
H 12.314 26.998 32.396
H 11.702 28.033 31.055
