137

Mg 20.541 26.643 30.342
C 23.519 24.888 30.567
C 21.485 28.164 33.31 
H 21.716 28.645 34.314
C 17.894 28.498 30.089
H 17.116 29.227 30.027
C 19.601 24.828 27.59 
H 19.253 24.203 26.73 
N 22.303 26.502 31.817
C 23.456 25.859 31.577
C 24.529 26.127 32.615
H 25.013 25.187 32.938
C 23.678 26.821 33.691
H 24.098 27.815 33.962
C 22.442 27.248 32.898
C 23.464 25.922 34.912
H 24.378 25.492 35.243
H 23.082 26.599 35.641
H 22.709 25.117 34.777
C 25.669 27.015 32.004
H 25.293 27.808 31.449
H 26.28  26.427 31.327
C 26.602 27.605 33.001
H 26.688 26.926 33.872
H 27.592 27.617 32.599
C 26.388 28.985 33.527
O 26.697 29.2   34.695
O 25.697 29.822 32.711
N 19.845 28.053 31.498
C 20.339 28.618 32.725
C 19.476 29.675 33.218
C 18.51  29.837 32.176
C 18.737 28.798 31.192
C 19.563 30.418 34.554
H 20.213 31.332 34.414
H 18.607 30.706 34.963
H 19.982 29.691 35.213
C 17.461 30.818 32.088
H 16.535 30.528 31.604
C 17.547 32.088 32.551
H 18.479 32.522 32.919
H 16.75  32.792 32.341
N 18.946 26.674 29.002
C 17.962 27.551 29.104
C 17.023 27.279 27.996
C 17.44  26.042 27.422
C 18.691 25.792 28.025
C 15.758 28.079 27.83 
H 15.098 27.524 27.123
H 15.26  28.261 28.726
H 16.013 29.093 27.4  
C 16.657 25.208 26.403
H 15.641 25.512 26.501
H 17.039 25.463 25.409
C 16.629 23.678 26.513
H 15.614 23.358 26.134
H 17.412 23.142 25.97 
H 16.812 23.375 27.556
N 21.344 25.224 29.263
C 20.825 24.527 28.178
C 21.835 23.522 27.82 
C 22.875 23.614 28.707
C 22.512 24.658 29.588
C 21.77  22.373 26.702
H 22.044 21.461 27.222
H 20.762 22.248 26.324
H 22.449 22.394 25.899
C 24.08  23.03  29.117
O 24.56  22.035 28.63 
C 24.71  23.873 30.293
H 25.563 24.402 29.899
C 25.17  22.943 31.416
O 24.558 22.117 32.083
O 26.487 23.15  31.687
C 27.048 22.417 32.873
H 28.102 22.722 33.027
H 26.528 22.843 33.701
H 27.002 21.343 32.773
C 25.361 31.047 33.415
H 26.312 31.636 33.607
H 24.724 31.011 34.284
C 24.513 31.78  32.423
H 23.691 31.164 32.071
C 24.458 33.06  32.04 
C 25.376 34.191 32.458
H 26.265 33.899 33.006
H 25.685 34.773 31.542
H 24.754 34.887 33.008
C 23.447 33.655 30.998
H 23.144 32.771 30.489
H 23.989 34.161 30.204
C 22.214 34.414 31.463
H 22.248 34.547 32.601
H 21.389 33.765 31.156
C 22.163 35.78  30.841
H 22.94  36.053 30.164
H 22.377 36.313 31.718
C 20.862 36.277 30.199
H 20.072 36.276 30.987
C 20.36  35.37  29.087
H 20.127 34.365 29.489
H 19.424 35.761 28.692
H 21.159 35.316 28.297
C 21.037 37.79  29.627
H 20.118 37.878 28.991
H 21.937 37.701 29.013
C 21.221 38.77  30.816
H 22.16  39.337 30.528
H 21.329 38.284 31.749
C 20.007 39.793 30.898
H 19.964 40.175 31.973
H 19.051 39.325 30.723
C 20.12  41.132 30.145
H 20.583 40.79  29.217
C 21.093 42.118 30.882
H 20.623 42.415 31.856
H 21.811 41.365 31.152
H 21.391 42.909 30.282
C 18.708 41.71  29.776
H 18.274 42.346 30.51 
H 17.846 40.961 29.654
C 18.649 42.485 28.388
H 17.782 42.004 27.851
H 19.603 42.249 27.909
C 18.637 44.047 28.362
H 18.448 44.38  29.34 
H 17.823 44.381 27.777
C 19.96  44.733 27.801
H 20.922 44.209 28.076
C 20.207 46.069 28.625
H 21.04  46.589 28.149
H 19.315 46.648 28.491
H 20.43  45.753 29.658
C 19.796 45.19  26.293
H 18.905 45.861 26.171
H 20.745 45.579 25.834
H 19.572 44.25  25.697
