137

Mg 33.828 32.242 35.63 
C 30.861 32.2   33.887
C 35.261 30.207 33.27 
H 35.691 29.654 32.489
C 36.787 32.275 37.479
H 37.607 32.194 38.164
C 32.425 34.492 37.892
H 31.823 35.059 38.566
N 33.172 31.37  33.792
C 31.933 31.494 33.249
C 31.774 30.685 31.993
H 31.079 29.894 32.281
C 33.183 30.016 31.776
H 33.679 30.246 30.825
C 33.967 30.621 32.967
C 33.234 28.466 31.713
H 32.586 28.105 30.889
H 34.256 28.17  31.482
H 32.948 27.907 32.627
C 31.363 31.57  30.787
H 32.174 32.264 30.727
H 30.602 32.182 31.154
C 31.172 30.983 29.411
H 31.713 31.573 28.641
H 31.517 29.969 29.476
C 29.675 30.977 29.034
O 29.127 30.067 28.385
O 28.985 32.101 29.5  
N 35.638 31.294 35.432
C 36.06  30.475 34.378
C 37.369 29.938 34.764
C 37.767 30.584 35.968
C 36.688 31.467 36.355
C 38.117 28.967 33.883
H 39.195 29.227 33.906
H 38.071 28.046 34.421
H 37.773 28.864 32.876
C 39.041 30.438 36.671
H 39.43  31.298 37.285
C 39.783 29.354 36.689
H 39.566 28.451 36.119
H 40.747 29.394 37.193
N 34.464 33.206 37.436
C 35.747 33.093 37.96 
C 35.815 33.998 39.105
C 34.55  34.563 39.309
C 33.758 34.136 38.164
C 37.128 34.365 39.766
H 37.413 33.485 40.246
H 37.909 34.541 39.029
H 37.108 35.118 40.515
C 34.157 35.459 40.464
H 33.079 35.381 40.672
H 34.706 35.149 41.396
C 34.389 36.981 40.303
H 34.523 37.277 39.27 
H 33.456 37.505 40.601
H 35.196 37.337 40.965
N 32.026 33.193 35.921
C 31.615 34.067 36.843
C 30.17  34.271 36.64 
C 29.809 33.518 35.523
C 30.971 32.988 35.049
C 29.165 34.96  37.511
H 28.301 34.94  36.933
H 28.778 34.649 38.452
H 29.413 36.051 37.532
C 28.681 33.118 34.747
O 27.478 33.348 34.911
C 29.326 32.25  33.555
H 29.029 32.749 32.688
C 28.61  30.924 33.592
O 28.578 30.217 34.579
O 27.78  30.796 32.479
C 26.873 29.59  32.532
H 26.368 29.5   31.596
H 27.353 28.643 32.729
H 26.122 29.733 33.35 
C 27.539 32.098 29.407
H 27.193 31.209 29.897
H 27.354 32.219 28.404
C 27.171 33.372 30.101
H 27.555 34.271 29.656
C 26.221 33.591 31.013
C 25.352 32.573 31.806
H 24.26  32.793 31.8  
H 25.511 31.563 31.421
H 25.629 32.567 32.855
C 25.997 34.907 31.674
H 26.95  35.393 31.456
H 26.094 34.752 32.727
C 24.723 35.653 31.247
H 24.435 35.216 30.293
H 24.967 36.653 31.044
C 23.685 35.554 32.355
H 23.709 36.651 32.726
H 23.959 34.932 33.19 
C 22.192 35.274 32.032
H 22.099 34.353 31.575
C 21.684 36.177 30.823
H 21.772 37.244 31.037
H 22.213 35.87  29.911
H 20.686 35.995 30.536
C 21.087 35.44  33.153
H 20.119 35.259 32.701
H 21.033 36.423 33.494
C 21.368 34.679 34.472
H 21.178 35.308 35.39 
H 22.272 34.241 34.451
C 20.269 33.447 34.616
H 20.636 32.618 34.013
H 19.284 33.725 34.182
C 20.021 33.007 36.059
H 19.838 33.927 36.617
C 21.237 32.195 36.582
H 21.675 31.511 35.884
H 22.058 32.766 36.722
H 20.985 31.574 37.451
C 18.767 32.081 36.111
H 18.711 31.611 37.054
H 18.879 31.21  35.528
C 17.395 32.663 35.859
H 17.215 33.697 36.216
H 16.736 32.171 36.506
C 17.037 32.423 34.418
H 17.85  32.003 33.806
H 16.787 33.442 33.96 
C 15.879 31.393 34.079
H 14.988 31.893 34.494
C 16.125 29.955 34.654
H 15.199 29.356 34.608
H 16.834 29.438 34.12 
H 16.505 29.958 35.669
C 15.592 31.223 32.597
H 14.85  30.441 32.345
H 15.29 32.19 32.15
H 16.47  30.894 32.111
