137

Mg 27.151 30.754 39.91 
C 24.863 28.203 39.994
C 24.942 32.589 38.215
H 24.179 33.047 37.593
C 29.483 33.214 39.971
H 30.287 33.99  39.897
C 29.335 28.73  41.689
H 30.039 27.998 42.049
N 25.063 30.485 39.403
C 24.205 29.391 39.601
C 22.839 29.489 38.966
H 22.874 28.6   38.312
C 22.992 30.886 38.199
H 22.313 31.703 38.624
C 24.439 31.324 38.567
C 22.805 30.827 36.746
H 22.922 31.855 36.286
H 23.543 30.153 36.382
H 21.852 30.377 36.66 
C 21.67  29.383 39.93 
H 21.643 30.332 40.476
H 21.74  28.485 40.622
C 20.245 29.146 39.202
H 20.334 28.72  38.238
H 19.809 28.246 39.758
C 19.129 30.086 39.121
O 17.959 29.808 39.309
O 19.502 31.365 38.98 
N 27.137 32.616 39.353
C 26.15  33.195 38.594
C 26.549 34.547 38.308
C 27.87  34.732 38.768
C 28.196 33.493 39.417
C 25.601 35.501 37.696
H 25.52  36.458 38.193
H 25.84  35.605 36.657
H 24.609 35.061 37.665
C 28.731 36.002 38.767
H 29.683 36.028 39.342
C 28.58  37.007 37.847
H 27.77  36.904 37.056
H 29.253 37.909 37.679
N 29.019 31.027 40.853
C 29.869 32.066 40.618
C 31.056 31.871 41.359
C 30.982 30.57  41.963
C 29.704 30.042 41.54 
C 32.204 32.759 41.52 
H 32.478 33.099 40.551
H 32.05  33.573 42.198
H 33.109 32.25  41.879
C 31.991 29.823 42.817
H 32.013 28.787 42.451
H 32.99  30.218 42.733
C 31.695 29.731 44.33 
H 30.679 29.285 44.477
H 32.361 29.174 44.986
H 31.568 30.766 44.561
N 27.15  28.811 40.608
C 28.128 28.079 41.262
C 27.739 26.706 41.303
C 26.531 26.685 40.7  
C 26.15  28.015 40.414
C 28.503 25.618 41.996
H 27.757 24.85  41.941
H 29.331 25.342 41.301
H 28.774 25.895 42.985
C 25.432 25.807 40.408
O 25.357 24.66  40.702
C 24.286 26.78  39.873
H 23.468 26.871 40.601
C 23.958 26.255 38.558
O 24.553 26.443 37.53 
O 22.727 25.63  38.616
C 22.095 25.243 37.315
H 21.97  26.13  36.765
H 22.778 24.529 36.796
H 21.185 24.727 37.616
C 18.31  32.316 38.956
H 17.56  32.105 39.666
H 17.837 32.304 37.986
C 18.893 33.698 39.211
H 19.858 33.866 38.748
C 18.311 34.612 39.985
C 17.167 34.565 40.929
H 17.488 34.389 41.951
H 16.607 35.486 40.869
H 16.482 33.842 40.635
C 18.986 35.937 39.985
H 19.916 35.965 39.474
H 19.192 36.137 41.032
C 18.359 37.168 39.341
H 19.138 37.981 39.44 
H 17.467 37.571 39.904
C 18.027 36.993 37.82 
H 16.916 37.072 37.818
H 18.301 35.919 37.575
C 18.51  38.096 36.843
H 18.264 39.167 37.236
C 17.862 38.013 35.428
H 18.222 38.857 34.865
H 18.098 37.046 34.971
H 16.711 38.135 35.432
C 20.072 38.051 36.759
H 20.564 38.452 37.65 
H 20.266 38.828 35.986
C 20.722 36.775 36.391
H 20.006 36.155 35.901
H 21.137 36.193 37.187
C 21.953 36.984 35.473
H 22.776 36.695 36.109
H 22.005 38.044 35.264
C 22.137 36.075 34.261
H 22.163 35.034 34.554
C 23.494 36.465 33.618
H 23.721 35.788 32.803
H 23.394 37.502 33.226
H 24.313 36.508 34.338
C 20.946 36.191 33.275
H 20.878 37.219 32.964
H 20.092 35.956 33.905
C 21.05  35.332 31.971
H 22.055 35.176 31.587
H 20.609 36.073 31.268
C 20.168 34.131 31.903
H 20.014 33.69  32.908
H 20.792 33.394 31.417
C 18.976 34.203 30.948
H 19.337 34.774 30.072
C 17.785 35.014 31.438
H 17.011 35.317 30.746
H 17.362 34.534 32.265
H 18.157 35.931 31.806
C 18.462 32.82  30.59 
H 18.002 32.387 31.507
H 17.683 32.963 29.825
H 19.236 32.143 30.24 
