137

Mg 23.017 19.941 28.772
C 22.805 19.828 25.376
C 26.017 21.586 28.482
H 27.013 22.099 28.328
C 23.374 19.704 32.117
H 23.484 19.726 33.168
C 20.007 18.087 28.995
H 19.039 17.534 28.989
N 24.228 20.724 27.124
C 23.948 20.538 25.792
C 24.951 21.291 24.888
H 25.375 20.545 24.151
C 26.05  21.779 25.9  
H 26.245 22.863 25.919
C 25.324 21.495 27.269
C 27.347 21.133 25.746
H 27.317 20.    25.754
H 27.818 21.363 24.803
H 27.957 21.537 26.487
C 24.262 22.466 24.207
H 23.7   23.074 24.919
H 23.519 22.154 23.447
C 25.26  23.352 23.437
H 26.27  22.894 23.33 
H 24.93  23.395 22.397
C 25.553 24.847 23.963
O 26.623 25.2   24.403
O 24.429 25.615 23.931
N 24.402 20.651 30.057
C 25.585 21.254 29.804
C 26.351 21.487 31.03 
C 25.6   20.897 32.072
C 24.335 20.445 31.419
C 27.793 22.084 31.071
H 27.821 22.967 30.352
H 27.988 22.608 31.946
H 28.515 21.301 30.758
C 25.942 20.717 33.483
H 25.139 20.596 34.161
C 27.111 20.712 34.082
H 28.043 20.894 33.5  
H 27.301 20.687 35.164
N 21.908 19.046 30.364
C 22.237 19.003 31.666
C 21.233 18.217 32.377
C 20.142 17.906 31.479
C 20.672 18.324 30.193
C 21.27  17.948 33.841
H 20.959 18.858 34.38 
H 20.683 17.053 34.044
H 22.248 17.578 34.169
C 18.75  17.282 31.766
H 18.685 16.414 31.103
H 18.737 16.974 32.773
C 17.584 18.332 31.518
H 17.293 18.368 30.545
H 16.702 18.062 32.139
H 17.956 19.354 31.787
N 21.667 19.179 27.498
C 20.447 18.464 27.686
C 19.883 18.078 26.422
C 20.789 18.652 25.471
C 21.826 19.226 26.127
C 18.651 17.33  26.03 
H 18.396 17.57  25.009
H 18.796 16.33  26.097
H 17.761 17.581 26.632
C 21.001 18.888 24.047
O 20.316 18.688 23.043
C 22.383 19.577 23.938
H 22.227 20.48  23.387
C 23.263 18.637 23.225
O 23.848 17.703 23.709
O 23.441 18.972 21.885
C 24.414 18.308 21.062
H 24.196 18.452 19.966
H 25.457 18.5   21.285
H 24.31  17.237 21.253
C 24.562 26.96  24.444
H 25.385 27.507 24.071
H 24.608 26.957 25.535
C 23.211 27.484 24.063
H 22.393 27.384 24.759
C 22.935 28.148 22.887
C 23.928 28.425 21.751
H 23.684 28.092 20.703
H 23.868 29.51  21.653
H 25.002 28.199 21.991
C 21.521 28.615 22.628
H 20.867 27.988 23.195
H 21.295 28.446 21.559
C 21.357 30.18  22.697
H 20.948 30.676 21.785
H 22.339 30.524 22.967
C 20.326 30.54  23.845
H 19.823 29.671 24.172
H 19.651 31.253 23.338
C 20.855 31.354 25.096
H 21.459 32.176 24.692
C 21.715 30.446 25.93 
H 21.843 30.824 26.959
H 21.42  29.418 25.91 
H 22.688 30.448 25.398
C 19.514 31.877 25.858
H 19.773 32.122 26.881
H 18.801 31.005 25.973
C 18.623 32.969 25.232
H 17.614 32.541 25.021
H 19.033 33.393 24.309
C 18.329 34.069 26.223
H 18.587 34.933 25.716
H 18.985 33.991 27.12 
C 16.792 33.968 26.79 
H 16.16  33.763 25.963
C 16.316 35.299 27.44 
H 17.    35.61  28.205
H 16.23  36.032 26.691
H 15.371 35.128 27.894
C 16.431 32.8   27.792
H 16.484 33.072 28.824
H 17.213 32.117 27.627
C 15.031 32.218 27.558
H 14.563 32.518 26.593
H 14.272 32.537 28.325
C 15.029 30.678 27.696
H 15.582 30.3   26.837
H 14.017 30.292 27.423
C 15.533 30.128 29.033
H 16.497 30.561 29.306
C 15.708 28.631 28.931
H 16.357 28.358 28.084
H 16.153 28.21  29.819
H 14.729 28.127 28.635
C 14.607 30.466 30.215
H 14.369 31.535 30.199
H 13.67  29.893 30.121
H 15.055 30.136 31.155
