137

Mg 29.675 29.3   35.98 
C 28.021 28.609 38.996
C 26.636 28.897 34.355
H 25.698 28.778 33.867
C 31.152 30.375 33.153
H 31.622 30.733 32.233
C 32.585 29.666 37.801
H 33.518 29.511 38.31 
N 27.551 28.925 36.675
C 27.098 28.607 37.916
C 25.51  28.329 38.   
H 25.414 27.319 38.417
C 25.214 28.303 36.442
H 24.41  29.017 36.254
C 26.56  28.692 35.759
C 24.758 26.862 36.071
H 24.718 26.759 34.986
H 25.4   26.039 36.342
H 23.748 26.704 36.441
C 24.694 29.364 38.837
H 24.561 30.373 38.482
H 25.25  29.485 39.714
C 23.255 28.956 39.275
H 23.209 27.902 39.036
H 23.036 29.204 40.332
C 22.088 29.781 38.6  
O 21.419 30.661 39.101
O 21.917 29.347 37.319
N 28.977 29.588 34.068
C 27.725 29.316 33.581
C 27.658 29.602 32.184
C 28.919 30.155 31.869
C 29.713 30.138 33.084
C 26.413 29.339 31.336
H 26.435 28.225 31.276
H 25.629 29.756 31.982
H 26.353 29.678 30.295
C 29.361 30.653 30.584
H 30.127 31.48  30.609
C 28.869 30.24  29.356
H 28.151 29.408 29.177
H 29.276 30.635 28.389
N 31.537 29.924 35.564
C 32.024 30.239 34.283
C 33.426 30.501 34.419
C 33.813 30.296 35.751
C 32.603 30.008 36.45 
C 34.371 30.883 33.344
H 34.981 30.039 33.153
H 33.826 31.071 32.421
H 34.941 31.827 33.633
C 35.236 30.613 36.258
H 35.692 29.827 36.788
H 36.007 30.835 35.505
C 35.344 31.848 37.242
H 34.797 31.558 38.107
H 36.431 32.172 37.573
H 34.732 32.649 36.853
N 30.214 29.16  37.871
C 31.457 29.317 38.517
C 31.331 29.029 39.962
C 30.032 28.751 40.167
C 29.421 28.832 38.937
C 32.446 29.146 41.003
H 33.182 29.875 40.613
H 32.012 29.508 41.922
H 32.95  28.191 41.186
C 29.114 28.333 41.199
O 29.155 27.988 42.345
C 27.754 28.258 40.391
H 27.08  29.009 40.788
C 27.211 26.885 40.648
O 27.411 25.872 40.018
O 26.412 26.844 41.758
C 25.702 25.587 41.918
H 25.105 25.621 42.831
H 25.017 25.441 41.134
H 26.44  24.81  42.044
C 20.884 30.074 36.56 
H 20.963 31.165 36.683
H 19.966 29.774 36.973
C 21.207 29.713 35.158
H 22.257 29.774 34.812
C 20.433 29.144 34.224
C 18.999 28.852 34.223
H 18.713 29.333 35.155
H 18.344 29.2   33.384
H 18.928 27.789 34.268
C 21.21  28.808 32.966
H 21.643 29.776 32.596
H 20.472 28.464 32.289
C 22.145 27.626 32.895
H 21.643 26.878 33.541
H 23.112 27.836 33.294
C 22.331 27.159 31.434
H 23.324 27.497 31.215
H 21.76  27.799 30.719
C 22.291 25.718 30.927
H 23.289 25.249 31.136
C 22.227 25.688 29.33 
H 23.27  25.69  28.884
H 21.757 24.713 29.033
H 21.67  26.525 28.894
C 21.252 24.869 31.69 
H 21.711 24.592 32.634
H 21.116 23.893 31.202
C 19.789 25.382 31.715
H 19.815 26.387 31.293
H 19.593 25.435 32.796
C 18.609 24.444 31.157
H 18.013 24.001 31.963
H 19.066 23.608 30.653
C 17.54  25.074 30.163
H 17.982 25.355 29.199
C 16.942 26.365 30.885
H 16.725 25.927 31.838
H 17.701 27.111 31.053
H 16.065 26.775 30.46 
C 16.463 24.06  29.744
H 15.749 24.018 30.522
H 16.883 23.083 29.648
C 15.553 24.481 28.498
H 16.063 24.303 27.574
H 15.385 25.536 28.645
C 14.219 23.742 28.454
H 14.378 23.039 29.258
H 14.15  23.179 27.573
C 12.884 24.541 28.757
H 13.08  25.06  29.667
C 11.675 23.655 29.104
H 12.005 23.169 30.005
H 10.785 24.207 29.159
H 11.67  22.807 28.386
C 12.516 25.549 27.61 
H 11.818 26.312 27.956
H 13.385 25.943 27.227
H 12.056 24.971 26.823
