137

Mg 22.958 19.413 28.36 
C 22.55  19.683 24.945
C 26.135 20.621 27.903
H 27.084 20.99  27.823
C 23.782 18.665 31.434
H 24.11  18.257 32.307
C 19.961 17.987 28.689
H 18.987 17.586 28.828
N 24.163 20.214 26.577
C 23.764 20.234 25.307
C 24.805 20.918 24.343
H 25.091 20.332 23.566
C 25.983 21.16  25.389
H 26.26  22.295 25.405
C 25.4   20.668 26.694
C 27.215 20.277 25.035
H 26.874 19.303 24.684
H 27.715 20.765 24.15 
H 28.029 20.338 25.755
C 24.169 22.204 23.77 
H 23.908 22.766 24.685
H 23.271 21.925 23.196
C 25.163 23.074 22.866
H 26.175 22.685 23.044
H 24.88  23.056 21.796
C 25.305 24.536 23.38 
O 26.364 25.128 23.561
O 24.118 25.223 23.482
N 24.499 19.978 29.531
C 25.768 20.283 29.172
C 26.706 20.261 30.319
C 25.977 19.726 31.345
C 24.671 19.482 30.766
C 28.035 20.911 30.295
H 28.879 20.334 29.886
H 27.915 21.756 29.619
H 28.263 21.268 31.274
C 26.401 19.551 32.732
H 25.631 19.437 33.502
C 27.72  19.513 33.188
H 28.561 19.615 32.475
H 27.962 19.29  34.24 
N 22.021 18.517 29.845
C 22.536 18.267 31.087
C 21.569 17.511 31.913
C 20.376 17.52  31.149
C 20.753 18.118 29.818
C 21.784 17.075 33.34 
H 22.711 16.515 33.409
H 21.872 17.903 34.011
H 20.95  16.534 33.667
C 19.062 16.827 31.44 
H 18.791 16.166 30.629
H 19.102 16.345 32.401
C 17.956 17.83  31.554
H 17.744 18.2   30.563
H 17.007 17.324 31.924
H 18.226 18.648 32.183
N 21.588 18.758 27.115
C 20.359 18.216 27.41 
C 19.585 18.063 26.207
C 20.454 18.544 25.211
C 21.613 18.995 25.844
C 18.157 17.735 26.06 
H 17.592 17.635 26.98 
H 17.711 18.451 25.426
H 18.357 16.719 25.638
C 20.543 18.832 23.852
O 19.78  18.595 22.899
C 21.987 19.465 23.587
H 21.832 20.377 22.99 
C 22.687 18.478 22.761
O 22.863 17.313 23.028
O 23.296 19.095 21.759
C 24.071 18.359 20.772
H 24.485 19.068 20.061
H 24.945 17.957 21.33 
H 23.457 17.558 20.41 
C 24.1   26.614 23.92 
H 24.964 27.177 23.484
H 24.119 26.63  24.994
C 22.758 27.089 23.5  
H 21.955 26.586 24.008
C 22.505 28.132 22.64 
C 23.561 29.046 22.034
H 23.323 29.499 21.059
H 23.557 29.798 22.787
H 24.611 28.618 21.943
C 21.045 28.37  22.299
H 20.356 27.835 22.94 
H 20.709 27.94  21.318
C 20.604 29.841 22.319
H 20.468 30.313 21.369
H 21.388 30.374 22.849
C 19.326 30.054 23.182
H 18.769 29.111 23.288
H 18.62  30.633 22.66 
C 19.614 30.702 24.629
H 20.293 31.526 24.514
C 20.384 29.779 25.596
H 20.184 30.192 26.58 
H 19.943 28.796 25.777
H 21.424 29.784 25.479
C 18.259 31.014 25.213
H 18.427 31.22  26.352
H 17.712 30.157 25.417
C 17.457 32.263 24.561
H 16.513 31.987 24.154
H 18.004 32.682 23.743
C 17.357 33.44  25.502
H 17.794 34.311 24.995
H 18.003 33.405 26.387
C 15.958 33.801 25.922
H 15.213 33.564 25.138
C 15.613 35.341 26.098
H 16.199 35.618 27.045
H 15.888 36.032 25.219
H 14.53  35.501 26.309
C 15.568 32.967 27.192
H 16.177 33.462 27.982
H 15.938 31.935 27.129
C 14.124 32.986 27.625
H 13.485 33.488 26.826
H 14.108 33.653 28.47 
C 13.582 31.56  27.877
H 13.46  30.979 26.944
H 12.539 31.727 28.223
C 14.35  30.634 28.872
H 15.297 30.407 28.452
C 13.483 29.474 29.244
H 13.126 28.99  28.335
H 14.013 28.772 29.895
H 12.605 29.685 29.891
C 14.702 31.394 30.186
H 15.486 32.115 30.248
H 13.799 31.828 30.633
H 14.913 30.621 30.952
