137

Mg 35.531 31.019 36.4  
C 32.151 31.176 35.342
C 35.925 28.337 34.279
H 35.995 27.485 33.604
C 38.861 30.962 37.213
H 39.882 30.908 37.513
C 35.025 33.688 38.434
H 34.853 34.366 39.245
N 34.264 29.969 35.019
C 32.931 30.184 34.737
C 32.35  29.211 33.723
H 31.401 28.823 34.041
C 33.465 28.11  33.625
H 33.705 27.93  32.621
C 34.657 28.86  34.346
C 33.014 26.821 34.383
H 32.195 26.417 33.833
H 33.827 26.111 34.462
H 32.677 27.121 35.372
C 31.955 29.832 32.38 
H 32.804 30.01  31.705
H 31.454 30.758 32.489
C 31.022 28.924 31.574
H 31.468 28.528 30.679
H 30.79  28.089 32.222
C 29.728 29.504 31.117
O 29.197 29.323 30.051
O 29.049 30.107 32.167
N 37.177 29.858 35.844
C 37.046 28.778 34.99 
C 38.398 28.182 34.805
C 39.283 28.957 35.62 
C 38.422 30.016 36.256
C 38.663 27.035 33.831
H 39.631 26.658 33.789
H 38.079 26.235 34.245
H 38.308 27.296 32.884
C 40.755 28.911 35.777
H 41.22  29.454 36.56 
C 41.661 28.175 35.086
H 41.388 27.483 34.225
H 42.705 28.454 35.25 
N 36.724 32.188 37.567
C 38.058 31.94  37.842
C 38.511 32.865 38.863
C 37.416 33.664 39.195
C 36.341 33.219 38.42 
C 39.959 33.059 39.28 
H 40.176 33.887 39.778
H 40.26  32.165 39.854
H 40.516 33.12  38.367
C 37.452 34.85  40.156
H 36.492 35.005 40.565
H 38.07  34.577 41.023
C 38.033 36.192 39.589
H 37.343 36.997 39.323
H 38.614 36.589 40.399
H 38.773 35.955 38.847
N 33.925 32.193 36.884
C 33.856 33.302 37.695
C 32.447 33.765 37.804
C 31.775 32.837 36.958
C 32.696 31.992 36.376
C 31.888 34.949 38.609
H 32.523 35.825 38.547
H 30.843 35.117 38.384
H 31.926 34.568 39.578
C 30.461 32.499 36.412
O 29.416 33.113 36.645
C 30.627 31.306 35.426
H 30.084 31.512 34.489
C 29.955 30.216 36.188
O 30.493 29.512 37.024
O 28.699 29.939 35.682
C 28.215 28.613 36.074
H 28.012 28.639 37.133
H 27.204 28.394 35.647
H 28.947 27.896 35.725
C 27.696 30.504 31.993
H 27.069 29.71  32.116
H 27.494 30.891 30.994
C 27.464 31.484 33.039
H 28.302 32.185 33.115
C 26.444 31.752 33.905
C 25.167 30.876 33.974
H 25.009 30.327 33.043
H 25.169 30.254 34.852
H 24.27  31.486 34.081
C 26.435 32.936 34.774
H 27.377 33.478 34.71 
H 26.339 32.483 35.796
C 25.339 34.003 34.512
H 25.073 33.94  33.431
H 25.704 34.937 34.721
C 24.155 33.805 35.454
H 24.254 34.432 36.342
H 24.103 32.819 35.966
C 22.873 34.041 34.559
H 22.913 33.373 33.751
C 22.762 35.508 34.051
H 22.854 36.049 34.967
H 23.7   35.733 33.411
H 21.859 35.849 33.561
C 21.583 33.691 35.451
H 20.681 33.84  34.877
H 21.63  34.411 36.334
C 21.442 32.264 35.99 
H 21.801 32.26  37.01 
H 22.084 31.578 35.443
C 20.021 31.696 36.006
H 20.03  30.642 36.328
H 19.636 31.671 34.974
C 18.958 32.344 36.956
H 18.913 33.425 36.883
C 19.503 32.183 38.361
H 19.844 31.187 38.578
H 20.237 32.875 38.538
H 18.714 32.24  39.099
C 17.538 31.74  36.839
H 16.924 32.099 37.658
H 17.718 30.683 37.048
C 16.813 31.838 35.48 
H 17.363 32.549 34.854
H 15.8   32.322 35.603
C 16.709 30.419 34.839
H 16.655 29.582 35.533
H 17.658 30.27  34.288
C 15.523 30.278 33.825
H 15.151 31.197 33.336
C 14.169 29.888 34.483
H 13.426 29.66  33.758
H 14.315 29.008 35.116
H 13.744 30.774 35.05 
C 15.881 29.331 32.686
H 15.021 29.19  32.031
H 16.689 29.873 32.14 
H 16.251 28.375 33.081
