137

Mg 21.053 18.775 25.731
C 21.107 17.875 22.442
C 23.957 20.521 25.355
H 24.865 21.096 25.181
C 21.173 19.576 29.017
H 21.066 19.837 30.081
C 18.188 16.924 26.276
H 17.35  16.307 26.456
N 22.327 19.169 24.025
C 22.076 18.813 22.752
C 23.328 19.125 21.885
H 23.746 18.148 21.532
C 24.206 19.916 22.867
H 24.289 20.993 22.615
C 23.46  19.875 24.187
C 25.619 19.242 22.935
H 25.557 18.31  23.553
H 25.921 19.066 21.925
H 26.293 20.018 23.314
C 22.945 20.05  20.685
H 22.347 20.878 21.082
H 22.412 19.463 19.944
C 24.165 20.566 19.858
H 25.122 20.327 20.264
H 24.254 20.307 18.779
C 24.372 22.085 19.71 
O 24.874 22.637 18.719
O 23.9   22.704 20.809
N 22.36  19.939 27.039
C 23.535 20.521 26.616
C 24.165 21.172 27.801
C 23.246 20.969 28.895
C 22.198 20.109 28.351
C 25.505 21.829 27.772
H 26.247 21.23  28.403
H 25.839 22.033 26.766
H 25.335 22.789 28.292
C 23.342 21.327 30.278
H 23.058 20.573 30.965
C 24.135 22.329 30.786
H 24.522 23.092 30.15 
H 24.321 22.49  31.849
N 19.919 18.195 27.363
C 20.111 18.671 28.622
C 19.156 18.097 29.534
C 18.213 17.454 28.724
C 18.747 17.514 27.338
C 19.025 18.309 31.01 
H 18.288 19.051 31.18 
H 18.751 17.402 31.547
H 19.979 18.546 31.407
C 16.933 16.784 29.137
H 16.897 15.823 28.579
H 16.941 16.558 30.202
C 15.689 17.575 28.685
H 14.887 17.309 29.321
H 15.767 18.661 28.842
H 15.553 17.184 27.683
N 19.931 17.566 24.711
C 18.723 16.904 25.016
C 18.272 16.182 23.796
C 19.19  16.491 22.825
C 20.133 17.359 23.39 
C 17.125 15.258 23.645
H 16.642 15.485 22.647
H 17.494 14.215 23.739
H 16.309 15.485 24.459
C 19.535 16.284 21.376
O 19.024 15.533 20.582
C 20.789 17.143 21.111
H 20.661 17.814 20.316
C 21.82  16.16  20.646
O 22.623 15.654 21.384
O 21.854 15.966 19.28 
C 22.937 15.326 18.597
H 23.934 15.656 18.937
H 22.91  14.257 18.829
H 22.767 15.339 17.506
C 24.34  24.062 20.777
H 23.798 24.674 20.087
H 25.359 24.211 20.511
C 24.072 24.494 22.203
H 24.803 24.445 23.02 
C 23.027 25.187 22.718
C 21.941 25.611 21.822
H 21.878 24.966 21.005
H 20.971 25.692 22.286
H 22.267 26.578 21.453
C 22.92  25.641 24.126
H 23.631 25.097 24.792
H 21.989 25.195 24.482
C 22.83  27.111 24.56 
H 21.794 27.306 24.808
H 23.06  27.741 23.701
C 23.651 27.423 25.808
H 24.057 26.51  26.174
H 22.96  27.853 26.549
C 24.821 28.457 25.564
H 24.413 29.273 24.977
C 25.888 27.826 24.575
H 26.66  27.134 25.017
H 25.318 27.179 23.879
H 26.332 28.58  23.875
C 25.432 28.959 26.87 
H 26.348 29.493 26.689
H 25.759 28.151 27.432
C 24.524 29.82  27.718
H 23.579 29.954 27.173
H 24.998 30.841 27.826
C 24.314 29.356 29.133
H 24.432 30.353 29.706
H 25.064 28.657 29.466
C 22.947 28.815 29.536
H 22.756 27.862 28.876
C 21.723 29.741 29.14 
H 20.884 29.293 29.568
H 21.842 30.775 29.568
H 21.721 29.749 28.043
C 22.892 28.387 31.064
H 22.612 29.299 31.606
H 23.866 28.127 31.352
C 21.99  27.144 31.414
H 22.478 26.405 32.011
H 21.781 26.676 30.43 
C 20.694 27.62  32.093
H 19.871 26.887 31.715
H 20.402 28.612 31.787
C 20.648 27.459 33.604
H 20.908 26.374 33.828
C 19.278 27.831 34.135
H 19.242 27.771 35.229
H 19.093 28.851 33.92 
H 18.591 27.138 33.67 
C 21.646 28.348 34.237
H 21.62  28.185 35.339
H 22.673 27.96  33.905
H 21.471 29.424 33.972
