137

Mg 35.515 33.423 36.381
C 32.071 33.675 36.085
C 35.458 30.717 34.221
H 35.341 29.844 33.502
C 38.823 33.381 36.474
H 39.874 33.335 36.482
C 35.551 36.124 38.56 
H 35.432 36.906 39.306
N 33.947 32.311 35.315
C 32.619 32.588 35.302
C 31.849 31.52  34.474
H 31.271 31.138 35.354
C 32.913 30.507 34.013
H 33.039 30.542 32.912
C 34.22  31.244 34.527
C 32.656 29.068 34.497
H 31.73  28.812 33.954
H 33.378 28.41  34.06 
H 32.568 28.878 35.516
C 30.983 32.168 33.256
H 31.706 32.555 32.5  
H 30.413 33.024 33.496
C 30.057 31.177 32.543
H 30.548 30.384 32.006
H 29.475 30.688 33.315
C 29.092 31.784 31.584
O 29.401 32.337 30.567
O 27.839 31.93  32.12 
N 36.92  32.216 35.546
C 36.729 31.171 34.704
C 38.002 30.549 34.319
C 38.958 31.384 34.893
C 38.244 32.412 35.681
C 38.215 29.426 33.337
H 37.329 28.831 33.258
H 38.403 29.845 32.313
H 39.077 28.79  33.552
C 40.43  31.253 34.697
H 41.065 31.667 35.52 
C 41.055 30.733 33.589
H 40.516 30.52  32.635
H 42.147 30.856 33.587
N 36.978 34.546 37.396
C 38.31  34.373 37.259
C 39.1   35.372 37.977
C 38.098 36.261 38.497
C 36.794 35.656 38.175
C 40.554 35.56  38.01 
H 40.831 35.953 37.052
H 40.722 36.242 38.874
H 41.036 34.619 38.228
C 38.223 37.474 39.329
H 37.612 37.48  40.261
H 39.26  37.607 39.661
C 37.732 38.702 38.564
H 36.709 38.61  38.195
H 37.827 39.572 39.17 
H 38.308 38.776 37.665
N 34.172 34.618 37.216
C 34.259 35.684 38.118
C 32.938 36.193 38.459
C 32.038 35.416 37.683
C 32.821 34.485 36.923
C 32.529 37.282 39.451
H 32.665 38.236 38.985
H 31.495 37.096 39.769
H 33.205 37.196 40.251
C 30.647 35.145 37.391
O 29.638 35.619 37.854
C 30.651 34.083 36.283
H 30.16  34.511 35.425
C 29.74  32.964 36.717
O 29.922 32.211 37.62 
O 28.651 32.989 35.926
C 27.549 32.093 36.299
H 27.398 32.352 37.322
H 26.612 32.312 35.764
H 27.927 31.073 36.188
C 26.938 32.889 31.568
H 26.728 32.676 30.546
H 27.151 33.969 31.67 
C 25.746 32.699 32.539
H 26.088 32.651 33.56 
C 24.428 32.65  32.225
C 23.958 32.644 30.709
H 23.602 33.652 30.409
H 24.77  32.447 30.028
H 23.109 32.055 30.508
C 23.321 32.301 33.236
H 23.852 32.124 34.167
H 22.909 31.32  33.099
C 22.266 33.459 33.361
H 22.447 34.133 32.472
H 22.45  34.002 34.295
C 20.81  32.999 33.459
H 20.322 33.571 34.256
H 20.789 31.94  33.715
C 19.999 33.337 32.136
H 20.607 33.015 31.348
C 19.713 34.85  32.027
H 18.752 34.999 32.416
H 20.423 35.502 32.541
H 19.684 35.096 30.972
C 18.769 32.361 32.029
H 19.143 31.394 31.717
H 18.117 32.684 31.206
C 18.077 32.224 33.354
H 17.062 32.327 33.123
H 18.262 33.055 34.082
C 18.358 30.862 34.067
H 19.38  30.545 34.064
H 17.767 30.1   33.538
C 17.962 30.795 35.584
H 16.924 31.136 35.634
C 18.79  31.854 36.431
H 19.794 31.447 36.66 
H 18.912 32.886 36.03 
H 18.292 32.136 37.386
C 18.04  29.329 36.095
H 17.922 29.457 37.122
H 18.991 28.912 35.83 
C 17.036 28.412 35.458
H 16.351 29.016 34.846
H 16.485 27.966 36.313
C 17.53  27.244 34.602
H 18.593 27.367 34.491
H 17.204 27.31  33.558
C 17.289 25.782 35.061
H 16.209 25.686 35.064
C 17.895 25.519 36.455
H 17.853 24.476 36.746
H 18.932 25.823 36.373
H 17.48  26.122 37.282
C 17.833 24.82  34.004
H 17.419 23.847 34.232
H 17.655 25.089 32.956
H 18.933 24.839 34.092
