137

Mg 22.428 31.987 31.888
C 22.034 28.73  33.029
C 19.159 32.538 32.535
H 18.155 32.822 32.682
C 22.817 34.824 30.308
H 23.061 35.888 29.903
C 25.747 31.006 31.013
H 26.69  30.638 30.663
N 20.836 30.889 32.817
C 20.908 29.533 33.146
C 19.538 29.001 33.611
H 19.366 28.126 33.011
C 18.526 30.142 33.293
H 17.984 30.448 34.263
C 19.55  31.256 32.829
C 17.41  29.837 32.233
H 17.892 29.878 31.257
H 16.927 28.856 32.471
H 16.687 30.618 32.336
C 19.518 28.49  35.045
H 19.365 29.42  35.57 
H 20.393 27.908 35.242
C 18.31  27.494 35.426
H 17.985 26.853 34.592
H 18.69  26.838 36.163
C 17.138 28.111 36.208
O 16.856 27.99  37.402
O 16.391 28.954 35.404
N 21.24  33.523 31.676
C 19.948 33.559 32.074
C 19.5   34.964 31.761
C 20.525 35.605 31.071
C 21.581 34.701 30.993
C 18.125 35.473 32.239
H 17.286 35.24  31.584
H 17.873 35.025 33.207
H 18.147 36.524 32.481
C 20.51  36.997 30.634
H 21.5   37.545 30.732
C 19.494 37.777 30.189
H 18.475 37.402 30.047
H 19.764 38.836 29.929
N 23.889 32.674 30.614
C 23.921 33.944 30.124
C 25.171 34.157 29.389
C 25.98  33.054 29.617
C 25.178 32.162 30.455
C 25.449 35.441 28.705
H 25.535 36.225 29.465
H 26.39  35.268 28.19 
H 24.6   35.675 28.024
C 27.372 32.83  29.145
H 27.452 31.776 28.951
H 27.448 33.389 28.145
C 28.459 33.483 30.086
H 28.504 32.826 30.997
H 29.425 33.575 29.656
H 28.049 34.489 30.245
N 23.725 30.357 32.108
C 24.934 30.059 31.678
C 25.397 28.664 31.989
C 24.27  28.106 32.546
C 23.26  29.184 32.558
C 26.621 27.948 31.589
H 27.457 28.472 32.024
H 26.546 26.929 31.919
H 26.811 27.998 30.57 
C 23.776 26.872 32.975
O 24.201 25.752 33.082
C 22.264 27.194 33.304
H 22.276 27.102 34.362
C 21.495 26.14  32.656
O 21.452 25.86  31.461
O 20.819 25.441 33.595
C 20.008 24.327 33.15 
H 19.275 24.682 32.46 
H 20.543 23.512 32.638
H 19.453 23.935 34.018
C 15.254 29.556 36.059
H 15.516 30.39  36.71 
H 14.68  28.883 36.683
C 14.278 30.031 34.968
H 13.942 29.269 34.204
C 13.976 31.283 34.586
C 14.518 32.581 35.177
H 15.332 32.295 35.827
H 14.954 33.184 34.346
H 13.743 33.084 35.8  
C 13.145 31.472 33.32 
H 13.211 30.552 32.678
H 13.55  32.406 32.862
C 11.614 31.643 33.53 
H 11.398 32.049 34.542
H 11.132 30.658 33.468
C 10.988 32.75  32.553
H 10.6   32.298 31.672
H 11.819 33.288 32.048
C  9.886 33.696 33.136
H  9.297 33.166 33.903
C  8.929 34.028 32.04 
H  8.235 34.758 32.379
H  9.534 34.363 31.19 
H  8.362 33.178 31.874
C 10.618 34.84  33.937
H 11.517 34.396 34.407
H  9.939 35.16  34.757
C 10.999 36.107 33.208
H 10.567 36.921 33.846
H 10.539 36.237 32.249
C 12.526 36.265 33.179
H 13.101 35.346 33.329
H 12.842 36.91  33.991
C 13.027 36.986 31.935
H 12.247 37.64  31.728
C 13.22  36.078 30.68 
H 14.131 35.523 30.957
H 12.401 35.374 30.393
H 13.523 36.603 29.793
C 14.332 37.896 32.123
H 14.649 38.197 31.161
H 15.128 37.197 32.413
C 14.175 39.199 32.951
H 13.186 39.245 33.355
H 14.327 40.097 32.413
C 15.11  39.257 34.172
H 15.515 38.282 34.447
H 14.595 39.665 35.009
C 16.463 40.036 33.876
H 16.087 40.985 33.479
C 17.453 39.321 32.86 
H 16.893 39.031 31.941
H 18.265 39.991 32.624
H 17.683 38.347 33.362
C 17.212 40.354 35.229
H 18.159 40.767 35.032
H 16.609 40.967 35.85 
H 17.472 39.489 35.825
