137

Mg 35.268 31.514 34.978
C 33.188 29.783 32.946
C 37.868 30.886 32.822
H 38.676 30.678 32.156
C 37.254 33.405 36.971
H 37.913 34.092 37.441
C 32.707 31.759 37.321
H 31.889 31.986 38.024
N 35.5   30.436 33.017
C 34.504 29.875 32.355
C 34.999 29.395 31.01 
H 34.715 28.346 30.848
C 36.563 29.486 31.117
H 36.958 30.148 30.335
C 36.728 30.287 32.41 
C 37.216 28.079 31.075
H 36.722 27.49  31.8  
H 37.033 27.765 30.056
H 38.277 28.115 31.262
C 34.458 30.191 29.77 
H 34.935 31.215 29.598
H 33.396 30.495 29.95 
C 34.343 29.452 28.414
H 35.14 29.8  27.71
H 34.487 28.359 28.523
C 33.114 29.691 27.601
O 33.031 30.209 26.501
O 32.09  28.986 28.223
N 37.167 32.062 34.842
C 38.086 31.703 33.906
C 39.375 32.234 34.305
C 39.247 32.95  35.481
C 37.848 32.87  35.84 
C 40.635 32.018 33.501
H 40.789 32.984 32.993
H 41.52  31.878 34.091
H 40.595 31.129 32.956
C 40.193 33.681 36.332
H 40.192 33.559 37.446
C 41.189 34.509 35.932
H 41.325 34.864 34.889
H 41.862 34.995 36.658
N 35.122 32.313 36.826
C 36.028 33.099 37.501
C 35.461 33.704 38.717
C 34.146 33.18  38.767
C 33.95  32.4   37.611
C 36.112 34.685 39.664
H 35.687 35.634 39.559
H 35.905 34.177 40.638
H 37.152 34.736 39.442
C 33.122 33.397 39.852
H 32.877 32.389 40.202
H 33.582 33.788 40.706
C 31.901 34.165 39.425
H 31.57  34.733 40.267
H 32.167 34.897 38.683
H 30.985 33.57  39.251
N 33.379 30.939 35.201
C 32.43  31.104 36.155
C 31.179 30.546 35.681
C 31.451 29.932 34.475
C 32.77  30.316 34.173
C 29.882 30.39  36.486
H 28.99  30.637 35.866
H 29.829 29.392 36.954
H 29.852 31.042 37.352
C 30.88  29.09  33.428
O 29.803 28.6   33.286
C 32.085 29.054 32.337
H 31.65  29.442 31.386
C 32.377 27.617 32.097
O 32.915 26.873 32.941
O 32.122 27.298 30.758
C 32.474 25.854 30.48 
H 33.436 25.543 30.843
H 31.664 25.239 30.941
H 32.531 25.672 29.387
C 30.959 28.556 27.406
H 31.3   28.    26.543
H 30.386 29.343 26.906
C 30.068 27.852 28.295
H 29.625 28.616 29.   
C 29.759 26.529 28.291
C 30.279 25.421 27.345
H 30.934 24.775 27.975
H 29.404 24.851 27.03 
H 30.863 25.76  26.495
C 28.701 26.087 29.261
H 28.588 26.892 29.877
H 29.095 25.251 29.849
C 27.291 25.8   28.674
H 27.115 24.72  28.799
H 27.201 26.026 27.585
C 25.986 26.426 29.325
H 25.546 27.258 28.727
H 26.259 26.766 30.33 
C 24.884 25.362 29.442
H 25.408 24.544 29.925
C 24.208 24.862 28.181
H 23.418 24.141 28.498
H 23.878 25.696 27.557
H 24.962 24.357 27.639
C 23.836 25.691 30.531
H 24.35  25.591 31.521
H 23.112 24.887 30.545
C 22.964 26.959 30.482
H 21.995 26.664 30.215
H 23.396 27.633 29.73 
C 22.853 27.676 31.85 
H 22.974 28.729 31.712
H 23.644 27.251 32.423
C 21.652 27.547 32.786
H 20.67  27.778 32.358
C 21.905 28.493 33.994
H 21.99  29.449 33.599
H 21.092 28.328 34.657
H 22.907 28.341 34.446
C 21.615 26.062 33.344
H 22.503 25.888 33.938
H 21.709 25.368 32.486
C 20.306 25.701 34.106
H 19.846 24.813 33.609
H 19.577 26.463 34.087
C 20.603 25.365 35.597
H 20.044 26.093 36.217
H 21.672 25.535 35.876
C 20.258 23.958 36.081
H 20.754 23.262 35.38 
C 18.813 23.638 36.091
H 18.521 22.637 36.49 
H 18.371 24.318 36.848
H 18.329 23.827 35.187
C 20.904 23.572 37.459
H 20.778 22.574 37.757
H 22.015 23.819 37.339
H 20.651 24.275 38.193
