137

Mg 28.068 30.043 42.676
C 24.738 30.107 43.229
C 27.576 28.754 39.449
H 27.398 28.423 38.396
C 31.435 29.464 42.303
H 32.527 29.241 42.208
C 28.682 31.035 45.988
H 28.957 31.377 47.01 
N 26.337 29.548 41.468
C 25.022 29.666 41.938
C 24.012 29.297 40.798
H 23.238 28.656 41.091
C 25.002 28.736 39.576
H 24.912 29.431 38.699
C 26.407 29.021 40.174
C 24.814 27.325 39.138
H 25.299 27.103 38.17 
H 25.134 26.758 40.033
H 23.772 27.085 38.97 
C 23.129 30.566 40.425
H 23.826 31.335 40.035
H 22.642 31.035 41.287
C 21.944 30.166 39.493
H 21.532 29.159 39.798
H 21.081 30.792 39.706
C 22.14  30.388 37.919
O 22.467 31.46  37.365
O 22.057 29.25  37.243
N 29.359 29.241 41.144
C 28.904 28.845 39.925
C 30.084 28.463 39.131
C 31.227 28.515 39.932
C 30.694 29.175 41.167
C 30.014 27.951 37.698
H 30.896 28.352 37.176
H 30.156 26.884 37.567
H 29.142 28.325 37.134
C 32.619 28.113 39.577
H 33.448 28.707 39.917
C 32.834 27.055 38.79 
H 31.988 26.408 38.503
H 33.912 26.796 38.704
N 29.769 30.228 43.957
C 31.003 29.874 43.595
C 31.961 30.19  44.65 
C 31.242 30.746 45.667
C 29.836 30.718 45.224
C 33.415 29.853 44.604
H 33.883 30.122 45.487
H 33.595 28.794 44.535
H 33.896 30.359 43.747
C 31.738 31.19  47.01 
H 31.329 30.597 47.749
H 32.855 31.162 47.078
C 31.414 32.69  47.312
H 31.38  33.23  46.338
H 30.353 32.817 47.625
H 32.084 33.16  48.085
N 27.008 30.466 44.272
C 27.352 30.89  45.576
C 26.108 31.176 46.287
C 25.083 30.894 45.443
C 25.678 30.442 44.253
C 26.041 31.738 47.678
H 25.056 31.423 47.98 
H 26.86  31.288 48.247
H 26.11  32.888 47.698
C 23.604 30.742 45.363
O 22.756 30.964 46.246
C 23.311 30.257 43.847
H 22.702 31.036 43.498
C 22.569 29.071 43.903
O 23.006 27.925 44.215
O 21.285 29.337 43.481
C 20.364 28.262 43.269
H 20.856 27.322 43.007
H 19.825 28.152 44.209
H 19.649 28.625 42.593
C 22.627 29.278 35.892
H 23.548 29.802 36.042
H 22.045 29.773 35.11 
C 22.66  27.746 35.662
H 23.07  27.217 36.509
C 22.247 26.976 34.627
C 21.599 27.502 33.433
H 21.288 28.554 33.609
H 22.268 27.359 32.564
H 20.715 26.892 33.301
C 22.39  25.433 34.695
H 22.905 25.231 35.639
H 22.975 25.063 33.863
C 21.073 24.649 34.713
H 20.231 25.254 34.596
H 20.966 24.179 35.72 
C 21.023 23.53  33.658
H 21.992 23.081 33.396
H 20.562 24.05  32.827
C 19.881 22.419 34.066
H 20.249 21.85  34.91 
C 19.781 21.394 32.979
H 19.015 20.687 33.119
H 19.529 21.91  32.044
H 20.758 20.842 32.935
C 18.507 22.93  34.543
H 18.642 23.091 35.595
H 17.796 22.135 34.5  
C 17.83  24.214 34.006
H 18.327 24.583 33.072
H 17.789 24.981 34.785
C 16.319 24.012 33.539
H 15.763 23.681 34.37 
H 16.321 23.219 32.771
C 15.582 25.178 32.915
H 16.062 25.342 31.948
C 15.664 26.464 33.83 
H 16.673 26.815 33.874
H 15.109 27.25  33.331
H 15.363 26.246 34.837
C 14.128 24.844 32.647
H 13.7   24.802 33.641
H 14.003 23.875 32.156
C 13.205 25.798 31.874
H 12.478 25.288 31.252
H 13.743 26.446 31.14 
C 12.243 26.728 32.757
H 12.56  27.788 32.652
H 12.285 26.511 33.848
C 10.746 26.686 32.321
H 10.775 26.958 31.204
C 10.041 27.714 33.198
H 10.595 28.61  33.028
H  9.028 27.736 32.829
H 10.05  27.477 34.251
C 10.069 25.282 32.366
H 10.631 24.48  31.828
H  9.967 24.944 33.413
H  9.103 25.375 31.919
