137

Mg 29.776 33.529 34.752
C 28.03  34.138 37.601
C 26.754 33.642 33.036
H 25.775 33.884 32.513
C 31.455 33.634 31.837
H 31.99  33.73  30.931
C 32.732 33.475 36.463
H 33.613 33.274 37.081
N 27.594 33.755 35.238
C 27.16  34.009 36.51 
C 25.646 34.304 36.437
H 25.222 33.706 37.227
C 25.256 33.817 35.039
H 24.677 34.588 34.532
C 26.64  33.743 34.362
C 24.463 32.439 35.098
H 24.292 32.128 34.025
H 25.032 31.691 35.587
H 23.484 32.512 35.612
C 25.254 35.844 36.812
H 25.894 36.593 36.237
H 25.476 35.914 37.872
C 23.728 36.145 36.776
H 23.162 35.366 36.219
H 23.317 36.226 37.724
C 23.23  37.497 36.226
O 22.86  38.508 36.815
O 23.256 37.418 34.872
N 29.198 33.793 32.731
C 27.896 33.637 32.275
C 27.934 33.698 30.833
C 29.272 33.65  30.419
C 30.05  33.666 31.668
C 26.752 33.73  29.816
H 26.833 34.424 28.941
H 26.703 32.683 29.441
H 25.827 33.982 30.42 
C 29.934 33.771 29.09 
H 30.87  34.305 28.982
C 29.38  33.497 27.901
H 28.414 33.004 27.784
H 29.942 33.762 26.929
N 31.807 33.513 34.25 
C 32.31  33.536 32.959
C 33.759 33.47  33.002
C 34.166 33.41  34.322
C 32.885 33.459 35.084
C 34.65  33.411 31.77 
H 34.338 32.731 31.028
H 34.511 34.321 31.246
H 35.709 33.333 32.01 
C 35.588 33.508 34.909
H 35.675 32.761 35.683
H 36.289 33.396 34.113
C 35.852 34.85  35.557
H 35.378 34.912 36.543
H 36.937 34.972 35.633
H 35.513 35.675 34.96 
N 30.268 33.731 36.607
C 31.515 33.662 37.19 
C 31.409 33.776 38.65 
C 30.021 34.053 38.889
C 29.384 33.941 37.626
C 32.494 33.872 39.65 
H 33.339 34.521 39.413
H 32.051 34.159 40.6  
H 32.89  32.868 39.836
C 29.014 34.423 39.877
O 29.033 34.664 41.073
C 27.671 34.592 39.063
H 27.192 35.568 39.18 
C 26.828 33.595 39.634
O 27.049 32.389 39.671
O 25.64  34.153 40.1  
C 24.564 33.349 40.689
H 24.267 32.534 40.037
H 24.898 32.823 41.595
H 23.688 33.876 40.874
C 22.775 38.557 34.216
H 23.584 39.221 33.984
H 21.919 39.132 34.567
C 22.434 37.94  32.919
H 23.119 37.256 32.502
C 21.364 38.242 32.133
C 20.321 39.26  32.46 
H 20.285 39.942 31.639
H 19.299 38.895 32.638
H 20.494 39.772 33.391
C 21.123 37.591 30.795
H 21.932 36.875 30.454
H 21.165 38.406 30.063
C 19.73  36.763 30.769
H 19.18  36.869 31.728
H 19.858 35.674 30.731
C 18.848 37.063 29.581
H 19.461 37.776 29.118
H 17.944 37.529 29.821
C 18.433 35.92  28.635
H 19.379 35.283 28.582
C 18.023 36.43  27.303
H 18.848 36.872 26.778
H 17.711 35.54  26.752
H 17.158 37.111 27.41 
C 17.29  35.05  29.235
H 17.687 34.581 30.192
H 17.178 34.185 28.645
C 15.898 35.731 29.511
H 15.948 36.813 29.352
H 15.523 35.702 30.538
C 14.737 35.205 28.652
H 15.164 34.424 28.062
H 14.544 36.063 28.016
C 13.459 34.619 29.282
H 13.059 35.322 29.985
C 13.879 33.271 29.995
H 14.408 32.632 29.208
H 14.491 33.357 30.871
H 13.047 32.751 30.297
C 12.272 34.338 28.187
H 12.495 33.485 27.536
H 12.232 35.228 27.517
C 10.853 34.248 28.824
H 10.165 35.111 28.644
H 10.981 34.097 29.891
C 10.105 32.954 28.244
H  9.508 32.506 29.008
H 10.762 32.145 27.889
C  9.063 33.284 27.167
H  8.405 34.113 27.513
C  8.097 32.173 26.844
H  7.273 32.415 26.134
H  8.581 31.282 26.561
H  7.626 31.897 27.817
C  9.767 33.942 25.99 
H  8.988 34.365 25.343
H 10.311 34.752 26.445
H 10.543 33.325 25.454
