137

Mg 35.369 33.836 35.575
C 32.434 32.984 33.931
C 36.843 31.178 33.874
H 37.27  30.299 33.449
C 38.122 34.331 37.399
H 39.135 34.435 37.878
C 33.569 36.003 37.558
H 32.985 36.58  38.249
N 34.687 32.33  34.005
C 33.482 32.249 33.439
C 33.365 31.12  32.455
H 32.431 30.588 32.679
C 34.647 30.274 32.79 
H 35.175 30.107 31.921
C 35.472 31.345 33.552
C 34.3   28.976 33.542
H 33.564 29.265 34.347
H 33.668 28.383 32.894
H 35.114 28.361 33.932
C 33.336 31.683 31.056
H 34.261 32.211 30.927
H 32.517 32.324 30.953
C 33.247 30.623 29.933
H 34.17  30.678 29.338
H 33.315 29.635 30.382
C 32.096 30.687 28.923
O 32.195 30.669 27.72 
O 30.856 30.624 29.557
N 37.193 32.987 35.615
C 37.595 31.851 34.905
C 38.94  31.497 35.327
C 39.278 32.368 36.35 
C 38.179 33.299 36.478
C 39.743 30.368 34.831
H 39.645 29.39  35.392
H 39.449 30.288 33.796
H 40.777 30.784 35.03 
C 40.488 32.284 37.251
H 40.9   33.165 37.692
C 41.126 31.178 37.651
H 40.888 30.169 37.375
H 41.953 31.241 38.375
N 35.839 35.012 37.156
C 37.003 35.089 37.696
C 36.983 36.079 38.753
C 35.683 36.597 38.774
C 34.943 35.837 37.839
C 38.131 36.428 39.566
H 38.392 35.583 40.127
H 38.997 36.696 38.97 
H 38.033 37.259 40.302
C 35.203 37.59  39.765
H 34.212 37.253 40.207
H 35.924 37.634 40.561
C 34.942 39.036 39.153
H 34.313 39.618 39.848
H 35.882 39.57  39.059
H 34.472 38.943 38.194
N 33.527 34.563 35.688
C 32.887 35.363 36.536
C 31.465 35.574 36.164
C 31.281 34.608 35.143
C 32.512 34.008 34.892
C 30.49  36.472 36.678
H 29.709 35.941 37.306
H 30.903 37.231 37.421
H 29.9   36.967 35.878
C 30.279 34.061 34.257
O 29.124 34.435 34.097
C 30.944 32.946 33.477
H 30.745 33.184 32.421
C 30.147 31.748 33.729
O 30.072 31.186 34.837
O 29.701 31.192 32.589
C 29.041 29.899 32.756
H 28.218 30.014 33.572
H 28.509 29.585 31.859
H 29.786 29.201 33.127
C 29.728 30.318 28.663
H 29.978 29.642 27.814
H 29.605 31.198 28.076
C 28.289 30.116 29.262
H 28.069 30.893 29.965
C 27.354 29.097 29.125
C 27.568 27.9   28.272
H 26.82  28.001 27.493
H 28.515 27.819 27.773
H 27.313 26.968 28.784
C 26.087 29.107 29.974
H 25.961 29.905 30.696
H 26.201 28.208 30.584
C 24.738 29.021 29.25 
H 24.675 28.193 28.55 
H 24.451 29.907 28.683
C 23.539 28.837 30.268
H 22.569 29.232 29.958
H 23.73  29.55  31.019
C 23.365 27.457 31.002
H 24.413 27.059 31.201
C 22.676 26.515 29.95 
H 22.802 25.483 30.236
H 21.618 26.645 29.812
H 23.098 26.496 28.987
C 22.617 27.57  32.418
H 23.175 28.39  32.9  
H 22.741 26.697 33.151
C 21.057 27.97  32.493
H 20.476 27.136 32.828
H 20.725 28.13  31.419
C 20.807 29.336 33.096
H 20.371 29.919 32.281
H 21.73  29.875 33.207
C 19.926 29.402 34.399
H 19.206 28.615 34.391
C 19.194 30.704 34.481
H 18.732 30.915 35.4  
H 19.856 31.497 34.299
H 18.325 30.719 33.779
C 20.754 29.115 35.678
H 20.047 28.882 36.484
H 21.387 29.914 35.939
C 21.797 27.963 35.649
H 22.725 28.324 35.308
H 21.594 27.304 34.936
C 21.868 27.156 36.925
H 21.206 27.654 37.586
H 22.91  27.265 37.272
C 21.51  25.635 36.781
H 22.222 25.237 36.028
C 19.996 25.461 36.427
H 19.637 24.417 36.536
H 19.436 26.079 37.122
H 19.81  25.812 35.459
C 21.737 24.885 38.124
H 20.86  24.923 38.747
H 22.12  23.918 38.042
H 22.478 25.51  38.669
