137

Mg 34.352 36.114 34.539
C 31.257 34.977 33.431
C 35.747 33.124 33.672
H 36.245 32.234 33.448
C 37.148 36.945 36.224
H 38.089 37.279 36.631
C 32.838 39.044 35.589
H 32.393 40.04  35.871
N 33.552 34.251 33.634
C 32.294 34.048 33.201
C 32.062 32.56  32.705
H 31.338 32.047 33.418
C 33.516 32.027 32.791
H 33.949 31.783 31.739
C 34.358 33.204 33.328
C 33.531 30.641 33.521
H 32.847 30.659 34.422
H 33.183 29.877 32.891
H 34.547 30.431 33.762
C 31.431 32.546 31.301
H 32.231 32.95  30.68 
H 30.614 33.268 31.283
C 30.767 31.197 30.833
H 31.566 30.733 30.299
H 30.331 30.679 31.726
C 29.567 31.235 29.82 
O 29.731 31.254 28.591
O 28.377 31.42  30.525
N 36.268 35.285 34.678
C 36.617 34.051 34.3  
C 38.045 33.95  34.482
C 38.431 34.987 35.293
C 37.268 35.813 35.431
C 38.849 32.739 33.818
H 39.095 32.012 34.568
H 38.305 32.207 33.041
H 39.748 33.192 33.39 
C 39.732 35.269 35.94 
H 40.05  36.348 36.093
C 40.565 34.294 36.353
H 40.462 33.207 36.24 
H 41.482 34.595 36.943
N 34.914 37.72  35.729
C 36.137 37.931 36.276
C 36.144 39.195 37.021
C 34.96  39.78  36.659
C 34.177 38.813 36.005
C 37.302 39.763 37.75 
H 37.625 40.791 37.38 
H 37.059 39.777 38.81 
H 38.17  39.164 37.695
C 34.521 41.098 37.153
H 33.565 40.942 37.71 
H 35.353 41.4   37.706
C 34.257 42.12  36.073
H 34.169 43.218 36.322
H 35.045 42.113 35.33 
H 33.319 41.935 35.566
N 32.469 36.859 34.621
C 31.984 38.098 34.999
C 30.577 38.164 34.703
C 30.279 36.938 34.128
C 31.484 36.223 33.985
C 29.576 39.202 35.001
H 30.021 39.95  35.756
H 29.338 39.722 34.095
H 28.714 38.645 35.397
C 29.146 36.133 33.633
O 27.969 36.464 33.619
C 29.756 34.832 33.182
H 29.549 34.778 32.129
C 28.992 33.739 33.865
O 28.929 33.539 35.063
O 28.34  33.022 32.943
C 27.586 31.876 33.563
H 27.44  31.116 32.775
H 28.096 31.361 34.345
H 26.568 32.25  33.943
C 27.261 31.581 29.554
H 27.239 30.723 28.852
H 27.356 32.522 29.096
C 26.061 31.567 30.432
H 25.699 32.477 30.774
C 25.474 30.44  30.839
C 25.789 28.997 30.439
H 24.859 28.505 30.102
H 26.546 28.866 29.648
H 26.102 28.61  31.421
C 24.3   30.569 31.812
H 24.405 31.521 32.332
H 24.371 29.856 32.648
C 22.857 30.596 31.26 
H 22.858 30.201 30.262
H 22.481 31.637 31.305
C 21.877 29.638 32.067
H 21.216 30.229 32.71 
H 22.351 28.961 32.757
C 20.943 28.783 31.168
H 21.526 28.444 30.299
C 19.791 29.664 30.593
H 19.033 29.131 30.091
H 19.406 30.227 31.382
H 20.217 30.293 29.843
C 20.448 27.527 31.992
H 21.331 26.9   32.219
H 19.878 26.97  31.306
C 19.596 27.819 33.219
H 18.619 27.401 32.99 
H 19.41  28.872 33.365
C 20.082 27.126 34.504
H 20.762 27.733 35.051
H 20.502 26.183 34.217
C 18.903 26.579 35.417
H 18.387 25.765 34.92 
C 17.946 27.739 35.82 
H 17.339 27.508 36.74 
H 18.466 28.661 36.073
H 17.191 27.856 35.021
C 19.45  25.951 36.827
H 18.589 25.647 37.385
H 19.974 26.728 37.331
C 20.223 24.586 36.668
H 21.121 24.592 37.318
H 20.522 24.394 35.609
C 19.282 23.368 36.945
H 18.241 23.703 36.926
H 19.494 22.978 37.969
C 19.391 22.219 35.933
H 20.374 21.799 35.81 
C 18.96  22.639 34.467
H 19.707 22.268 33.805
H 18.031 22.205 34.17 
H 18.878 23.727 34.276
C 18.582 20.995 36.353
H 17.516 21.142 36.294
H 18.902 20.142 35.711
H 18.703 20.716 37.388
