137

Mg 30.599 28.224 41.57 
C 27.318 28.978 42.232
C 29.924 28.388 38.184
H 29.712 28.473 37.099
C 33.754 27.592 40.992
H 34.85  27.488 40.824
C 31.013 27.541 44.909
H 31.273 27.298 45.974
N 28.819 28.638 40.416
C 27.605 28.996 40.886
C 26.567 29.126 39.763
H 25.826 28.427 40.203
C 27.328 28.586 38.513
H 27.289 29.333 37.721
C 28.803 28.476 39.028
C 26.744 27.342 37.776
H 27.326 27.043 36.955
H 26.857 26.553 38.483
H 25.694 27.489 37.547
C 25.822 30.447 39.65 
H 26.389 31.15  39.05 
H 25.708 30.878 40.647
C 24.45  30.329 39.021
H 24.124 29.302 39.165
H 23.731 30.921 39.614
C 24.289 30.904 37.632
O 24.615 32.018 37.287
O 23.781 29.974 36.781
N 31.692 27.944 39.867
C 31.287 28.054 38.547
C 32.404 27.737 37.658
C 33.547 27.593 38.438
C 33.019 27.765 39.805
C 32.205 27.521 36.105
H 32.821 26.789 35.679
H 31.189 27.247 35.936
H 32.424 28.476 35.653
C 34.916 27.192 38.127
H 35.566 26.925 38.926
C 35.469 27.357 36.902
H 34.828 27.68  36.095
H 36.513 27.013 36.706
N 32.121 27.664 42.763
C 33.397 27.504 42.284
C 34.265 27.199 43.44 
C 33.491 27.472 44.592
C 32.143 27.565 44.115
C 35.764 26.932 43.292
H 36.018 25.974 42.956
H 36.248 27.6   42.581
H 36.133 26.988 44.248
C 33.944 27.41  46.072
H 33.254 26.726 46.611
H 35.005 27.091 46.073
C 33.819 28.698 46.877
H 34.726 29.282 46.712
H 32.947 29.191 46.5  
H 33.795 28.556 47.916
N 29.409 28.184 43.284
C 29.69  27.813 44.577
C 28.534 27.875 45.399
C 27.584 28.393 44.543
C 28.186 28.58  43.288
C 28.379 27.477 46.813
H 29.264 26.89  47.147
H 28.306 28.336 47.478
H 27.48  26.876 46.964
C 26.214 28.896 44.519
O 25.422 29.059 45.392
C 25.94  29.115 42.993
H 25.496 30.072 42.948
C 24.924 28.197 42.571
O 25.087 26.976 42.446
O 23.821 28.891 42.182
C 22.734 27.9   41.781
H 22.878 27.604 40.746
H 22.635 26.983 42.396
H 21.703 28.372 41.847
C 23.739 30.388 35.369
H 24.755 30.486 34.982
H 23.23  31.341 35.243
C 22.94  29.312 34.738
H 23.641 28.568 34.43 
C 21.623 29.137 34.68 
C 20.556 30.053 35.424
H 20.982 30.998 35.621
H 19.663 30.104 34.854
H 20.336 29.509 36.27 
C 21.048 27.865 34.082
H 21.755 27.357 33.474
H 20.204 28.169 33.493
C 20.513 26.881 35.202
H 19.451 26.947 35.115
H 20.737 27.267 36.176
C 20.952 25.435 34.931
H 21.462 24.979 35.742
H 21.752 25.32  34.223
C 19.821 24.438 34.534
H 19.237 24.415 35.485
C 20.586 23.043 34.435
H 19.92  22.188 34.489
H 21.33  22.981 33.616
H 21.29  22.748 35.263
C 18.897 24.8   33.436
H 18.24  25.608 33.778
H 18.231 23.914 33.494
C 19.606 24.963 32.003
H 19.293 24.091 31.499
H 20.749 24.864 31.984
C 19.147 26.282 31.357
H 20.088 26.585 30.852
H 18.925 27.034 32.136
C 17.965 26.243 30.249
H 17.061 25.858 30.833
C 18.308 25.287 29.029
H 19.318 25.585 28.696
H 18.192 24.258 29.381
H 17.677 25.412 28.215
C 17.633 27.706 29.761
H 18.429 28.133 29.097
H 17.616 28.209 30.703
C 16.281 27.737 28.955
H 15.99  26.811 28.485
H 16.548 28.309 28.049
C 15.163 28.488 29.724
H 15.284 29.535 29.473
H 15.444 28.477 30.787
C 13.8   27.868 29.543
H 13.793 27.48  28.541
C 12.668 28.961 29.681
H 12.651 29.651 28.877
H 11.719 28.471 29.609
H 12.719 29.478 30.606
C 13.573 26.641 30.539
H 12.587 26.204 30.266
H 14.331 25.798 30.651
H 13.424 27.136 31.525
