137

Mg 28.332 29.226 38.191
C 27.741 26.653 40.386
C 27.5   27.167 35.553
H 27.331 26.529 34.705
C 29.053 31.649 35.868
H 29.234 32.493 35.16 
C 29.449 31.141 40.715
H 29.644 31.817 41.509
N 27.651 27.231 38.07 
C 27.422 26.371 39.096
C 26.803 25.032 38.587
H 27.346 24.114 38.91 
C 27.051 25.101 37.063
H 26.148 24.841 36.54 
C 27.378 26.589 36.842
C 28.246 24.263 36.591
H 29.096 24.463 37.253
H 27.909 23.24  36.528
H 28.553 24.56  35.613
C 25.302 24.886 39.023
H 24.695 25.566 38.368
H 25.303 25.254 40.047
C 24.773 23.414 39.039
H 25.267 22.811 38.289
H 24.862 23.008 40.066
C 23.302 23.179 38.61 
O 22.456 24.05  38.506
O 23.094 21.844 38.255
N 28.152 29.414 36.048
C 27.751 28.449 35.161
C 27.763 29.03  33.786
C 28.246 30.36  33.848
C 28.571 30.511 35.308
C 27.29  28.228 32.566
H 28.212 27.939 31.988
H 26.774 27.311 32.903
H 26.553 28.734 31.992
C 28.398 31.355 32.81 
H 28.409 32.396 33.175
C 28.624 31.093 31.511
H 28.646 30.    31.132
H 28.739 31.907 30.714
N 29.274 30.98  38.273
C 29.43  31.846 37.253
C 29.983 33.107 37.753
C 30.004 32.966 39.169
C 29.491 31.663 39.441
C 30.351 34.36  36.989
H 29.547 35.105 37.034
H 31.273 34.777 37.337
H 30.57  34.056 35.985
C 30.409 34.108 40.085
H 31.085 33.822 40.824
H 31.04  34.794 39.524
C 29.329 34.951 40.667
H 29.922 35.555 41.413
H 28.649 35.444 39.929
H 28.765 34.331 41.388
N 28.636 28.968 40.155
C 29.071 29.857 41.098
C 28.983 29.287 42.431
C 28.47  28.01  42.242
C 28.307 27.879 40.808
C 29.474 29.916 43.604
H 29.261 31.018 43.583
H 29.028 29.541 44.53 
H 30.529 29.717 43.728
C 28.044 26.789 42.879
O 28.064 26.529 44.044
C 27.605 25.79  41.683
H 26.595 25.489 41.858
C 28.472 24.652 41.939
O 29.5   24.383 41.383
O 27.935 23.772 42.955
C 28.727 22.514 43.107
H 28.709 21.798 42.233
H 29.77  22.715 43.303
H 28.298 22.046 43.931
C 21.746 21.576 37.798
H 21.225 22.483 37.429
H 21.064 21.015 38.464
C 22.007 20.682 36.592
H 22.392 19.645 36.791
C 21.907 20.947 35.237
C 21.481 22.306 34.651
H 20.643 22.174 34.019
H 21.155 23.048 35.353
H 22.309 22.752 34.153
C 22.4   19.88  34.307
H 23.135 19.237 34.814
H 23.044 20.259 33.48 
C 21.231 19.024 33.656
H 20.31  19.471 33.938
H 21.345 18.088 34.075
C 21.355 18.898 32.095
H 21.795 19.767 31.637
H 20.36  18.848 31.643
C 22.102 17.625 31.626
H 23.122 17.594 32.062
C 22.319 17.701 30.141
H 22.83  16.824 29.746
H 21.397 17.66  29.635
H 22.781 18.547 29.751
C 21.431 16.197 31.966
H 21.642 15.883 33.015
H 21.919 15.472 31.4  
C 19.839 16.038 31.886
H 19.385 16.598 31.036
H 19.431 16.467 32.812
C 19.454 14.587 31.815
H 19.534 14.038 32.709
H 20.087 14.126 31.075
C 17.972 14.409 31.307
H 17.831 15.139 30.477
C 17.012 14.677 32.483
H 17.026 13.937 33.316
H 17.079 15.746 32.8  
H 16.029 14.638 32.001
C 17.655 13.002 30.604
H 16.584 12.962 30.623
H 18.033 12.127 31.21 
C 18.1   12.85  29.118
H 18.65  11.904 29.161
H 18.819 13.624 28.848
C 16.955 12.791 28.1  
H 17.06  13.462 27.258
H 16.072 13.125 28.488
C 16.673 11.458 27.406
H 16.462 10.639 28.101
C 17.837 10.987 26.465
H 18.117 11.792 25.795
H 18.638 10.78  27.177
H 17.505 10.209 25.792
C 15.295 11.47  26.632
H 14.471 11.647 27.293
H 15.383 12.214 25.859
H 15.109 10.56  26.095
