137

Mg 20.586 25.182 37.983
C 19.166 22.145 38.847
C 21.031 23.959 34.791
H 21.339 23.717 33.837
C 21.657 28.218 37.118
H 22.004 29.196 36.92 
C 20.204 26.199 41.372
H 20.094 26.347 42.453
N 19.943 23.38  36.883
C 19.326 22.271 37.47 
C 18.998 21.271 36.428
H 19.244 20.243 36.724
C 19.847 21.667 35.24 
H 19.176 21.815 34.412
C 20.328 23.078 35.614
C 20.938 20.621 34.848
H 21.667 20.799 35.62 
H 20.575 19.574 34.827
H 21.278 21.028 33.918
C 17.478 21.076 36.025
H 17.03  21.969 35.565
H 16.991 20.85  36.99 
C 17.184 19.984 35.041
H 17.905 19.215 35.145
H 16.198 19.507 35.147
C 17.276 20.354 33.609
O 17.298 21.486 33.132
O 17.013 19.254 32.876
N 21.222 26.003 36.208
C 21.487 25.326 35.072
C 22.079 26.211 34.097
C 22.16  27.466 34.714
C 21.636 27.281 36.055
C 22.615 25.729 32.805
H 23.555 26.272 32.66 
H 22.875 24.644 32.852
H 22.06  25.906 31.893
C 22.718 28.711 34.157
H 23.1   29.447 34.83 
C 22.635 28.983 32.865
H 22.26  28.315 32.038
H 23.043 29.914 32.447
N 20.729 26.97  39.005
C 21.315 28.105 38.482
C 21.488 29.062 39.488
C 21.008 28.521 40.71 
C 20.591 27.136 40.403
C 21.966 30.542 39.178
H 22.852 30.558 38.596
H 21.175 31.124 38.75 
H 22.255 31.024 40.191
C 20.932 29.21  42.073
H 21.72  28.884 42.75 
H 20.963 30.286 41.978
C 19.59 29.13 42.69
H 18.827 29.426 41.964
H 19.411 28.132 42.988
H 19.585 29.68  43.652
N 19.931 24.393 39.784
C 19.825 24.915 41.116
C 19.234 23.873 41.97 
C 19.118 22.829 41.112
C 19.497 23.16  39.799
C 18.79  23.858 43.459
H 19.3   24.609 43.986
H 17.708 23.97  43.451
H 19.069 22.927 43.89 
C 18.7   21.454 41.093
O 18.383 20.724 41.995
C 18.697 20.94  39.698
H 17.709 20.526 39.452
C 19.773 19.894 39.768
O 20.924 20.093 40.133
O 19.26  18.65  39.303
C 20.342 17.593 39.192
H 20.9   17.469 40.075
H 19.945 16.569 38.984
H 21.071 17.869 38.405
C 16.833 19.494 31.5  
H 17.772 19.988 31.135
H 16.092 20.232 31.252
C 16.88  18.186 30.641
H 17.785 17.609 30.787
C 15.961 17.705 29.806
C 14.575 18.353 29.739
H 13.827 17.729 30.163
H 14.434 19.305 30.234
H 14.371 18.516 28.639
C 16.257 16.488 28.871
H 17.337 16.388 28.849
H 15.959 16.852 27.89 
C 15.69  15.099 29.246
H 15.416 15.171 30.309
H 16.544 14.346 29.232
C 14.514 14.551 28.515
H 15.01  13.883 27.844
H 14.058 15.298 27.956
C 13.471 13.893 29.387
H 13.926 13.19  30.133
C 12.473 12.983 28.438
H 11.436 13.033 28.81 
H 12.399 13.256 27.395
H 12.893 11.915 28.398
C 12.534 14.899 30.094
H 13.165 15.645 30.578
H 12.028 14.42  30.883
C 11.548 15.779 29.242
H 11.636 15.469 28.196
H 11.848 16.852 29.277
C 10.092 15.57  29.554
H  9.958 14.667 30.227
H  9.531 15.287 28.659
C  9.357 16.726 30.258
H  9.72 17.61 29.72
C  9.784 16.9   31.785
H  9.038 17.564 32.313
H  9.844 15.923 32.31 
H 10.776 17.374 31.779
C  7.807 16.584 30.083
H  7.496 15.75  30.635
H  7.558 16.369 29.097
C  6.981 17.801 30.536
H  7.479 18.856 30.459
H  6.912 17.496 31.552
C  5.582 17.859 29.855
H  4.937 17.424 30.597
H  5.53  17.169 29.002
C  5.15  19.268 29.433
H  5.284 20.019 30.217
C  3.663 19.28  29.124
H  3.572 18.406 28.482
H  3.123 18.997 30.042
H  3.312 20.235 28.764
C  5.872 19.816 28.235
H  5.671 20.852 28.036
H  6.861 19.767 28.479
H  5.6   19.202 27.393
