137

Mg 19.737 18.457 23.804
C 22.899 18.375 22.358
C 20.874 21.062 25.734
H 21.162 21.973 26.318
C 16.604 18.818 24.965
H 15.598 18.962 25.355
C 18.847 15.712 21.865
H 18.461 14.802 21.41 
N 21.609 19.652 23.958
C 22.786 19.397 23.301
C 23.679 20.577 23.536
H 24.573 20.032 23.836
C 23.186 21.325 24.767
H 23.017 22.394 24.565
C 21.807 20.6   24.906
C 24.079 21.051 26.001
H 24.203 19.989 25.968
H 25.027 21.633 25.827
H 23.455 21.172 26.854
C 24.    21.557 22.333
H 22.994 22.043 22.153
H 24.149 21.068 21.416
C 25.077 22.636 22.52 
H 25.25  22.749 23.539
H 25.994 22.322 22.099
C 24.637 24.021 22.031
O 24.11  24.168 20.922
O 24.911 25.022 22.928
N 18.892 19.685 25.161
C 19.542 20.589 25.991
C 18.635 21.035 26.954
C 17.437 20.422 26.649
C 17.634 19.573 25.553
C 18.967 22.141 27.939
H 19.939 21.941 28.415
H 18.939 23.123 27.409
H 18.282 22.093 28.815
C 16.083 20.654 27.306
H 15.453 19.775 27.559
C 15.706 21.834 27.817
H 16.354 22.757 27.642
H 14.785 21.963 28.443
N 17.888 17.41  23.381
C 16.724 17.747 23.931
C 15.677 16.834 23.322
C 16.366 16.006 22.452
C 17.802 16.354 22.559
C 14.183 16.77  23.695
H 14.092 15.789 24.265
H 14.041 17.703 24.226
H 13.472 16.873 22.893
C 15.731 15.014 21.572
H 16.247 14.044 21.673
H 14.686 14.971 21.855
C 15.978 15.342 20.069
H 15.785 14.415 19.557
H 15.322 16.114 19.632
H 16.958 15.708 19.961
N 20.646 17.232 22.408
C 20.17  16.154 21.711
C 21.3   15.575 20.89 
C 22.415 16.423 21.159
C 21.889 17.443 21.987
C 21.497 14.333 20.088
H 21.525 14.541 19.026
H 22.368 13.793 20.352
H 20.658 13.691 20.376
C 23.852 16.646 20.92 
O 24.749 16.031 20.326
C 24.149 18.047 21.547
H 24.222 18.707 20.648
C 25.391 17.927 22.304
O 25.452 17.451 23.429
O 26.48  18.524 21.676
C 27.768 18.474 22.384
H 28.253 17.525 22.367
H 28.466 19.077 21.786
H 27.637 18.763 23.411
C 24.38  26.326 22.392
H 23.342 26.401 22.032
H 24.941 26.601 21.505
C 24.395 27.458 23.397
H 23.495 27.599 23.948
C 25.321 28.458 23.442
C 26.602 28.463 22.669
H 26.34  28.971 21.694
H 27.374 29.023 23.19 
H 26.974 27.496 22.399
C 25.127 29.658 24.362
H 26.026 29.727 24.976
H 24.279 29.54  25.058
C 25.124 30.998 23.667
H 25.1   30.777 22.549
H 26.076 31.548 23.847
C 24.084 32.051 24.112
H 23.154 31.584 24.479
H 23.901 32.546 23.169
C 24.558 33.15  25.088
H 25.433 33.584 24.677
C 24.882 32.621 26.508
H 23.984 32.176 26.998
H 25.631 31.895 26.533
H 25.248 33.349 27.217
C 23.354 34.226 25.22 
H 23.562 34.737 26.122
H 22.4   33.758 25.358
C 23.12  35.189 24.041
H 22.042 35.298 23.976
H 23.342 34.836 23.014
C 23.809 36.576 24.204
H 24.748 36.586 24.804
H 23.004 37.152 24.715
C 24.042 37.275 22.841
H 24.62  36.515 22.283
C 25.08  38.438 22.947
H 25.022 39.055 22.069
H 24.826 38.962 23.798
H 26.109 38.067 23.073
C 22.76  37.6   22.048
H 22.091 38.191 22.595
H 22.21  36.625 21.855
C 22.942 38.099 20.648
H 22.584 37.306 19.982
H 24.035 38.125 20.414
C 22.082 39.363 20.405
H 22.828 40.094 20.11 
H 21.472 39.687 21.199
C 21.    39.355 19.195
H 21.668 39.005 18.436
C 20.439 40.748 18.854
H 21.254 41.432 18.681
H 19.915 40.685 17.922
H 19.767 41.15  19.663
C 19.84  38.362 19.566
H 20.299 37.338 19.57 
H 19.41  38.604 20.564
H 19.088 38.293 18.774
