137

Mg 20.358 24.627 31.71 
C 22.614 23.883 34.313
C 19.218 27.236 33.746
H 18.991 28.143 34.324
C 18.351 25.579 29.278
H 17.788 25.988 28.369
C 21.966 22.43  29.753
H 22.451 21.646 29.154
N 20.89  25.422 33.754
C 21.939 25.075 34.534
C 22.082 25.859 35.791
H 22.05  25.222 36.679
C 20.747 26.634 35.749
H 20.921 27.691 35.901
C 20.218 26.431 34.283
C 19.729 26.072 36.804
H 18.888 26.775 37.052
H 19.365 25.072 36.572
H 20.172 26.112 37.791
C 23.484 26.693 35.784
H 23.599 27.289 34.885
H 24.279 25.934 35.691
C 23.62  27.598 37.061
H 22.832 27.251 37.801
H 24.614 27.478 37.535
C 23.547 29.127 37.071
O 24.511 29.854 36.992
O 22.224 29.516 37.177
N 18.98  26.119 31.579
C 18.571 27.026 32.523
C 17.587 27.98  31.979
C 17.323 27.551 30.631
C 18.216 26.379 30.431
C 17.11  29.226 32.668
H 16.163 29.459 32.242
H 16.829 28.976 33.671
H 17.858 30.056 32.661
C 16.57  28.107 29.476
H 16.229 27.427 28.746
C 16.252 29.384 29.265
H 16.574 30.263 29.872
H 15.681 29.662 28.376
N 20.109 23.963 29.879
C 19.142 24.466 29.012
C 19.131 23.687 27.774
C 20.266 22.803 27.877
C 20.823 23.074 29.202
C 18.079 23.835 26.748
H 17.072 23.828 27.215
H 18.299 24.653 26.054
H 18.146 22.935 26.186
C 20.744 21.755 26.882
H 21.848 21.753 26.958
H 20.425 20.743 27.087
C 20.709 22.215 25.371
H 19.788 21.821 24.925
H 20.73  23.294 25.238
H 21.639 21.804 24.864
N 21.889 23.399 31.924
C 22.492 22.516 31.037
C 23.671 21.913 31.562
C 23.677 22.355 32.888
C 22.584 23.223 33.07 
C 24.689 21.007 30.954
H 25.133 20.401 31.716
H 24.257 20.317 30.196
H 25.471 21.531 30.449
C 24.416 22.152 34.099
O 25.449 21.551 34.36 
C 23.624 23.    35.147
H 24.273 23.645 35.693
C 22.965 22.068 36.125
O 22.53  20.953 35.929
O 22.763 22.783 37.282
C 22.156 22.043 38.411
H 21.163 21.654 38.16 
H 22.726 21.221 38.769
H 22.071 22.754 39.248
C 22.017 30.968 37.011
H 22.349 31.408 36.1  
H 22.587 31.461 37.823
C 20.545 31.163 37.223
H 20.088 30.494 37.975
C 19.643 31.892 36.504
C 19.954 32.715 35.334
H 19.197 32.702 34.539
H 19.959 33.691 35.782
H 20.914 32.451 34.908
C 18.219 31.961 36.967
H 18.179 31.324 37.86 
H 17.491 31.399 36.242
C 17.786 33.313 37.612
H 18.714 34.024 37.577
H 17.489 33.051 38.634
C 16.718 34.127 36.891
H 16.529 33.665 35.891
H 17.152 35.095 36.643
C 15.312 34.225 37.633
H 15.55  34.589 38.674
C 14.708 32.848 37.795
H 14.735 32.231 36.888
H 15.154 32.321 38.622
H 13.679 32.946 38.006
C 14.385 35.168 36.79 
H 13.315 35.171 37.11 
H 14.42  34.842 35.726
C 14.782 36.682 36.764
H 15.549 36.867 37.509
H 13.913 37.168 37.07 
C 15.393 37.205 35.418
H 14.683 37.113 34.575
H 16.218 36.531 35.186
C 15.863 38.626 35.334
H 16.411 38.936 36.212
C 14.634 39.622 35.307
H 14.883 40.629 35.179
H 13.995 39.246 34.449
H 14.151 39.657 36.337
C 16.664 38.978 34.06 
H 16.85  40.056 34.149
H 15.995 39.007 33.23 
C 17.918 38.113 33.858
H 18.07  37.598 34.786
H 18.791 38.662 33.567
C 17.662 37.067 32.65 
H 18.059 37.534 31.72 
H 16.549 36.923 32.495
C 18.104 35.62  32.825
H 17.461 35.225 33.615
C 19.579 35.519 33.195
H 19.94  34.59  33.518
H 20.135 35.991 32.419
H 19.748 36.136 34.098
C 17.803 34.872 31.53 
H 18.051 33.818 31.692
H 16.794 34.956 31.211
H 18.403 35.298 30.725
