137

Mg 30.039 30.946 36.814
C 29.739 27.712 37.8  
C 29.654 29.776 33.559
H 29.539 29.38  32.492
C 30.52  34.081 35.623
H 30.726 35.067 35.094
C 30.947 31.915 39.96 
H 31.395 32.238 40.926
N 29.711 28.974 35.786
C 29.645 27.786 36.407
C 29.378 26.58  35.455
H 30.314 26.011 35.543
C 29.413 27.339 34.151
H 28.414 27.301 33.697
C 29.67  28.798 34.518
C 30.382 26.85  33.064
H 31.361 26.839 33.53 
H 30.144 25.798 32.899
H 30.283 27.404 32.079
C 28.119 25.75  35.726
H 27.223 26.33  35.692
H 28.215 25.343 36.803
C 27.859 24.54  34.818
H 27.136 24.846 34.066
H 28.782 24.132 34.352
C 27.168 23.357 35.465
O 27.685 22.536 36.291
O 25.92  23.082 34.968
N 29.906 31.838 34.909
C 29.698 31.209 33.71 
C 29.653 32.204 32.644
C 29.909 33.412 33.228
C 30.114 33.163 34.675
C 29.386 31.839 31.263
H 29.467 32.786 30.721
H 30.098 31.15  30.837
H 28.353 31.463 31.227
C 30.023 34.78  32.636
H 29.562 35.623 33.218
C 30.828 35.079 31.591
H 31.466 34.287 31.134
H 30.987 36.153 31.363
N 30.646 32.796 37.664
C 30.816 33.937 36.986
C 31.298 34.948 37.867
C 31.333 34.328 39.178
C 30.9   32.994 38.989
C 31.722 36.282 37.43 
H 32.015 36.872 38.355
H 32.648 36.126 36.823
H 30.915 36.789 36.861
C 31.837 34.951 40.469
H 32.562 34.245 40.898
H 32.441 35.766 40.257
C 30.753 35.077 41.519
H 31.125 35.597 42.345
H 29.973 35.671 41.129
H 30.307 34.148 41.859
N 30.21  30.046 38.625
C 30.733 30.536 39.767
C 30.869 29.395 40.694
C 30.443 28.298 39.944
C 30.124 28.752 38.667
C 31.359 29.542 42.133
H 31.1   28.645 42.643
H 32.485 29.648 42.148
H 30.776 30.302 42.661
C 30.172 26.937 40.034
O 30.38  26.204 41.017
C 29.673 26.457 38.665
H 28.612 26.159 38.711
C 30.676 25.359 38.267
O 31.621 25.534 37.482
O 30.34  24.111 38.537
C 30.945 23.045 37.784
H 30.488 23.07  36.762
H 32.043 23.171 37.684
H 30.657 22.126 38.175
C 25.306 21.78  35.382
H 25.091 21.837 36.495
H 25.84  20.883 35.036
C 23.969 21.743 34.657
H 24.058 21.887 33.631
C 22.691 21.602 35.057
C 22.191 21.497 36.48 
H 21.57  20.585 36.771
H 23.    21.517 37.251
H 21.468 22.328 36.686
C 21.63  21.358 33.965
H 22.097 21.216 32.989
H 21.011 22.305 33.997
C 20.683 20.141 34.143
H 19.685 20.45  34.597
H 21.296 19.464 34.649
C 20.196 19.545 32.758
H 20.908 19.901 32.014
H 19.211 19.96  32.43 
C 19.793 18.011 32.882
H 20.563 17.467 33.332
C 19.641 17.489 31.42 
H 19.516 16.406 31.323
H 18.722 17.93  31.025
H 20.451 17.825 30.774
C 18.512 17.551 33.64 
H 18.625 17.816 34.716
H 18.389 16.473 33.468
C 17.162 18.098 33.261
H 16.874 17.88  32.229
H 17.123 19.19  33.429
C 16.011 17.551 34.196
H 15.574 18.47  34.646
H 16.453 16.967 34.964
C 14.906 16.637 33.609
H 14.49  17.098 32.718
C 13.603 16.581 34.465
H 13.751 16.127 35.468
H 13.142 17.578 34.564
H 12.979 15.835 33.997
C 15.469 15.231 33.239
H 14.945 14.597 33.902
H 16.492 14.998 33.52 
C 15.097 14.6   31.791
H 14.721 15.322 31.145
H 14.353 13.874 31.962
C 16.35  13.974 31.124
H 17.309 14.185 31.579
H 16.612 14.514 30.246
C 16.275 12.432 30.921
H 15.468 12.113 30.335
C 16.152 11.707 32.315
H 17.062 11.993 32.881
H 15.149 12.036 32.707
H 16.289 10.674 32.259
C 17.597 11.976 30.258
H 17.518 12.459 29.295
H 18.506 12.226 30.898
H 17.634 10.871 30.205
