137

Mg 28.243 29.4   36.343
C 27.048 26.295 37.442
C 28.61  28.198 33.224
H 28.824 27.808 32.19 
C 29.726 32.338 35.444
H 30.252 33.251 35.178
C 28.083 30.459 39.629
H 28.015 30.718 40.681
N 27.854 27.501 35.453
C 27.339 26.388 36.07 
C 27.04  25.292 35.087
H 27.643 24.468 35.446
C 27.5   25.875 33.682
H 26.675 25.961 33.053
C 28.036 27.292 34.111
C 28.535 25.083 32.859
H 29.563 25.334 33.196
H 28.363 24.024 32.814
H 28.452 25.448 31.834
C 25.585 24.802 35.086
H 24.997 25.677 34.906
H 25.286 24.485 36.102
C 25.304 23.658 34.132
H 24.781 24.055 33.249
H 26.229 23.129 33.837
C 24.481 22.483 34.587
O 24.122 22.197 35.697
O 24.155 21.77  33.472
N 28.933 30.191 34.577
C 28.949 29.569 33.332
C 29.326 30.526 32.337
C 29.687 31.79  32.928
C 29.457 31.482 34.396
C 29.355 30.318 30.857
H 29.597 29.277 30.649
H 28.449 30.673 30.334
H 30.17  30.937 30.544
C 30.055 33.099 32.309
H 30.466 33.767 33.048
C 29.965 33.533 31.033
H 29.495 32.895 30.262
H 30.307 34.528 30.761
N 28.831 31.156 37.376
C 29.424 32.235 36.818
C 29.665 33.26  37.851
C 29.208 32.676 39.036
C 28.634 31.41  38.74 
C 30.278 34.611 37.606
H 31.277 34.744 38.041
H 30.442 34.855 36.585
H 29.613 35.28  38.152
C 29.145 33.286 40.392
H 29.511 32.582 41.126
H 29.743 34.237 40.393
C 27.733 33.71  40.756
H 27.307 34.307 39.955
H 27.074 32.793 40.88 
H 27.801 34.224 41.773
N 27.654 28.649 38.082
C 27.624 29.197 39.369
C 27.196 28.3   40.39 
C 27.019 27.143 39.704
C 27.246 27.392 38.318
C 26.924 28.577 41.821
H 27.74  29.288 42.199
H 26.    29.121 41.9  
H 26.878 27.653 42.418
C 26.644 25.735 39.831
O 26.458 25.069 40.804
C 26.626 25.164 38.367
H 25.661 25.007 38.03 
C 27.517 23.991 38.3  
O 28.735 24.02  38.217
O 26.714 22.865 38.363
C 27.348 21.542 38.212
H 28.278 21.644 37.626
H 27.65  21.213 39.225
H 26.629 20.885 37.725
C 23.521 20.482 33.855
H 22.473 20.628 33.957
H 23.836 20.029 34.79 
C 23.765 19.495 32.694
H 24.713 18.961 32.745
C 22.97  19.139 31.649
C 21.513 19.661 31.241
H 21.289 20.571 31.899
H 21.526 20.069 30.184
H 20.804 18.846 31.506
C 23.378 18.044 30.741
H 24.405 17.892 30.862
H 23.268 18.364 29.714
C 22.777 16.567 30.902
H 22.149 16.433 31.836
H 23.652 15.828 30.921
C 21.852 16.204 29.714
H 22.025 16.867 28.85 
H 20.846 16.441 29.988
C 21.792 14.761 29.178
H 22.842 14.633 29.063
C 21.043 14.703 27.796
H 21.097 13.782 27.182
H 20.037 14.909 27.974
H 21.592 15.52  27.196
C 21.204 13.758 30.23 
H 21.862 13.806 31.127
H 21.377 12.837 29.704
C 19.755 13.782 30.702
H 19.33  14.784 30.768
H 19.789 13.48  31.731
C 18.771 12.705 30.128
H 18.519 11.959 30.884
H 19.329 12.123 29.448
C 17.435 13.324 29.579
H 17.722 14.153 28.987
C 16.632 13.898 30.79 
H 16.533 13.179 31.594
H 17.14  14.853 31.195
H 15.64  14.138 30.389
C 16.583 12.414 28.721
H 15.69  12.958 28.446
H 16.409 11.559 29.304
C 17.247 12.055 27.397
H 18.173 12.668 27.238
H 16.541 12.191 26.604
C 17.628 10.595 27.389
H 17.812 10.097 28.347
H 18.545 10.551 26.846
C 16.668  9.548 26.658
H 16.509  9.817 25.616
C 15.291  9.264 27.376
H 15.418  8.805 28.304
H 14.799 10.271 27.453
H 14.598  8.6   26.845
C 17.451  8.2   26.666
H 18.422  8.424 26.269
H 17.613  7.614 27.561
H 17.032  7.625 25.771
