137

Mg 21.263 16.926 25.446
C 23.375 17.496 22.81 
C 23.401 18.752 27.41 
H 23.898 19.447 28.122
C 19.067 16.474 28.097
H 18.314 16.308 28.854
C 19.458 14.8   23.552
H 19.007 14.083 22.896
N 23.212 17.892 25.158
C 23.841 18.039 23.954
C 25.001 18.99  23.999
H 25.937 18.533 23.678
C 25.1   19.302 25.535
H 25.026 20.36  25.67 
C 23.839 18.667 26.08 
C 26.304 18.678 26.223
H 26.081 17.606 26.379
H 27.198 18.818 25.626
H 26.547 19.095 27.2  
C 24.834 20.295 23.096
H 23.948 20.832 23.397
H 25.009 20.188 22.04 
C 26.063 21.215 23.078
H 26.938 20.806 23.605
H 26.477 21.299 22.084
C 26.028 22.648 23.49 
O 26.931 23.485 23.496
O 24.775 23.017 23.963
N 21.231 17.463 27.422
C 22.266 18.187 28.069
C 21.923 18.252 29.454
C 20.627 17.809 29.657
C 20.197 17.245 28.337
C 22.902 18.689 30.505
H 23.748 18.093 30.36 
H 22.983 19.777 30.313
H 22.61  18.397 31.56 
C 19.818 17.716 30.915
H 19.139 16.882 31.005
C 19.763 18.69  31.832
H 20.445 19.626 31.824
H 19.168 18.586 32.783
N 19.512 15.82  25.772
C 18.806 15.746 26.933
C 17.71  14.744 26.706
C 17.774 14.258 25.331
C 18.937 14.959 24.823
C 16.645 14.411 27.672
H 17.216 13.884 28.512
H 16.293 15.258 28.169
H 15.821 13.827 27.213
C 16.955 13.281 24.62 
H 17.519 12.722 23.898
H 16.529 12.596 25.319
C 15.947 14.1   23.852
H 15.434 14.694 24.524
H 16.429 14.692 23.092
H 15.206 13.48  23.323
N 21.424 16.238 23.636
C 20.616 15.334 22.944
C 21.025 15.138 21.559
C 22.122 15.994 21.433
C 22.329 16.63  22.698
C 20.252 14.35  20.499
H 19.918 13.392 20.922
H 19.439 14.907 20.124
H 20.849 14.042 19.604
C 23.049 16.51  20.54 
O 23.214 16.251 19.372
C 23.994 17.498 21.376
H 24.026 18.492 20.992
C 25.287 16.722 21.39 
O 25.523 15.789 22.107
O 26.145 17.246 20.54 
C 27.374 16.489 20.252
H 27.12  15.41  20.236
H 27.74  16.861 19.232
H 28.086 16.677 21.024
C 24.789 24.272 24.733
H 25.259 25.157 24.094
H 25.299 24.087 25.601
C 23.384 24.595 25.147
H 22.841 23.684 25.355
C 22.676 25.823 25.079
C 23.313 27.119 24.843
H 24.368 27.136 25.107
H 23.356 27.286 23.742
H 22.825 27.962 25.366
C 21.253 25.788 25.625
H 20.97  24.7   25.713
H 20.612 26.273 24.9  
C 21.122 26.278 27.128
H 21.942 27.007 27.295
H 21.354 25.438 27.805
C 19.761 26.797 27.568
H 19.444 26.108 28.353
H 18.919 26.697 26.84 
C 19.796 28.27  27.981
H 20.295 28.866 27.131
C 20.566 28.51  29.274
H 20.614 29.576 29.556
H 20.14  28.061 30.222
H 21.588 28.157 29.218
C 18.302 28.837 28.048
H 18.319 29.65  28.718
H 17.667 28.174 28.535
C 17.765 29.289 26.606
H 16.716 29.079 26.533
H 18.262 28.659 25.842
C 18.032 30.78  26.221
H 18.657 30.725 25.361
H 18.538 31.254 27.031
C 16.812 31.69  25.836
H 16.131 31.193 25.089
C 17.397 33.012 25.214
H 17.994 33.632 25.86 
H 17.989 32.679 24.336
H 16.543 33.613 24.859
C 16.043 32.105 27.014
H 16.642 32.847 27.546
H 15.902 31.222 27.651
C 14.661 32.87  26.791
H 14.396 32.779 25.696
H 14.986 33.901 26.815
C 13.517 32.525 27.769
H 13.768 31.61  28.343
H 12.763 32.086 27.203
C 13.016 33.558 28.789
H 13.829 33.855 29.486
C 11.993 33.082 29.867
H 12.428 32.329 30.508
H 11.757 33.922 30.489
H 11.078 32.785 29.465
C 12.394 34.721 28.026
H 13.076 34.998 27.195
H 11.415 34.398 27.611
H 12.21  35.614 28.616
