137

Mg 22.622 19.347 25.388
C 23.11  18.203 22.093
C 25.521 21.296 25.058
H 26.297 22.042 24.984
C 22.238 20.437 28.528
H 21.88  20.881 29.489
C 19.786 17.483 25.531
H 18.862 16.947 25.474
N 24.17  19.628 23.766
C 24.194 19.018 22.509
C 25.239 19.626 21.643
H 25.904 18.926 21.265
C 26.109 20.519 22.673
H 26.121 21.573 22.465
C 25.238 20.483 23.938
C 27.527 19.92  22.874
H 27.549 18.856 22.918
H 28.183 20.239 22.031
H 27.915 20.356 23.855
C 24.607 20.412 20.489
H 23.908 21.181 20.939
H 24.148 19.73  19.866
C 25.608 21.    19.48 
H 26.623 20.702 19.743
H 25.424 20.538 18.522
C 25.687 22.556 19.371
O 26.003 23.213 18.367
O 25.3   23.178 20.518
N 23.809 20.474 26.689
C 24.9   21.252 26.315
C 25.334 22.039 27.448
C 24.346 21.876 28.409
C 23.399 20.884 27.9  
C 26.522 23.041 27.331
H 26.166 24.026 26.918
H 27.029 23.139 28.324
H 27.366 22.656 26.731
C 24.2   22.489 29.745
H 23.737 21.818 30.463
C 24.654 23.654 30.077
H 25.175 24.283 29.393
H 24.562 23.971 31.067
N 21.378 18.952 26.809
C 21.334 19.526 28.079
C 20.117 19.056 28.751
C 19.511 18.072 27.893
C 20.216 18.18  26.645
C 19.519 19.481 30.022
H 20.39  19.381 30.666
H 19.09  20.545 30.069
H 18.801 18.79  30.349
C 18.293 17.264 27.992
H 18.434 16.255 27.581
H 18.033 17.213 29.01 
C 17.054 17.905 27.311
H 16.631 18.624 28.046
H 17.271 18.267 26.354
H 16.368 17.071 27.121
N 21.61  18.137 24.148
C 20.438 17.438 24.279
C 20.069 16.668 23.088
C 21.133 16.983 22.246
C 21.994 17.911 22.891
C 18.93  15.645 22.915
H 19.079 15.093 22.001
H 18.897 15.03  23.825
H 17.932 16.092 22.899
C 21.601 16.695 20.903
O 21.15  15.999 20.009
C 22.83  17.487 20.759
H 22.76  18.087 19.904
C 23.878 16.475 20.426
O 24.719 15.912 21.117
O 23.887 16.355 19.043
C 25.032 15.7   18.47 
H 25.937 15.809 18.91 
H 24.881 14.595 18.53 
H 25.097 15.975 17.382
C 25.397 24.661 20.511
H 24.651 25.104 19.838
H 26.483 24.895 20.333
C 25.13  25.109 21.936
H 26.007 25.108 22.686
C 23.999 25.599 22.465
C 22.673 25.762 21.716
H 22.68  26.772 21.277
H 22.674 25.124 20.847
H 21.786 25.518 22.253
C 23.983 25.947 23.956
H 24.887 25.769 24.488
H 23.368 25.307 24.605
C 23.41  27.391 24.172
H 22.414 27.296 24.496
H 23.377 27.961 23.276
C 24.083 28.22  25.249
H 24.89  27.715 25.786
H 23.324 28.379 26.034
C 24.573 29.672 24.889
H 23.735 30.207 24.414
C 25.714 29.652 23.881
H 26.601 29.143 24.313
H 25.483 28.991 23.011
H 25.932 30.589 23.424
C 25.126 30.318 26.206
H 25.872 31.119 25.949
H 25.778 29.562 26.536
C 24.14  30.923 27.255
H 23.107 30.712 27.01 
H 24.45  32.019 27.291
C 24.396 30.467 28.751
H 24.466 31.437 29.198
H 25.341 29.874 28.766
C 23.315 29.59  29.432
H 23.243 28.717 28.808
C 21.883 30.223 29.56 
H 21.551 30.532 28.562
H 21.157 29.498 29.939
H 21.752 31.153 30.23 
C 23.765 29.326 30.911
H 23.715 30.208 31.534
H 24.798 29.035 30.76 
C 23.063 28.23  31.761
H 23.682 27.338 31.993
H 22.209 27.823 31.232
C 22.616 28.704 33.161
H 23.24  29.548 33.481
H 22.7   27.839 33.768
C 21.199 29.224 33.434
H 20.921 29.853 32.652
C 21.024 30.072 34.798
H 20.01  30.237 35.016
H 21.476 29.447 35.581
H 21.697 30.966 34.682
C 20.066 28.137 33.286
H 19.152 28.491 33.598
H 19.973 27.827 32.233
H 20.448 27.224 33.815
