137

Mg 35.306 35.709 35.418
C 31.853 35.821 35.065
C 35.28  32.4   34.439
H 35.26  31.283 34.169
C 38.709 35.596 35.599
H 39.777 35.628 35.534
C 35.393 39.073 36.131
H 35.369 40.079 36.52 
N 33.759 34.245 34.827
C 32.463 34.541 34.776
C 31.681 33.378 34.115
H 30.887 33.131 34.769
C 32.707 32.192 34.008
H 32.768 31.84  32.983
C 33.993 32.964 34.429
C 32.439 30.905 34.781
H 32.116 31.129 35.845
H 31.514 30.435 34.374
H 33.327 30.243 34.78 
C 31.051 33.7   32.752
H 31.879 33.462 32.053
H 30.846 34.738 32.664
C 29.817 32.779 32.412
H 30.155 31.806 32.025
H 29.267 32.676 33.395
C 28.842 33.193 31.373
O 28.759 34.362 30.954
O 28.043 32.162 31.06 
N 36.723 34.245 35.223
C 36.517 32.941 34.828
C 37.745 32.239 34.765
C 38.76  33.118 35.045
C 38.081 34.408 35.276
C 37.808 30.831 34.439
H 38.836 30.381 34.6  
H 37.041 30.389 35.031
H 37.47  30.663 33.407
C 40.23  33.012 35.022
H 40.734 33.583 35.815
C 40.917 32.22  34.093
H 40.465 31.73  33.222
H 41.99  32.154 34.062
N 36.827 37.135 35.632
C 38.124 36.894 35.757
C 38.895 38.214 35.754
C 37.889 39.181 36.011
C 36.594 38.466 35.962
C 40.411 38.268 35.632
H 40.688 39.293 35.725
H 40.853 37.674 36.444
H 40.712 37.97  34.625
C 38.022 40.615 36.237
H 37.401 40.939 37.065
H 39.04  40.727 36.48 
C 37.733 41.476 35.001
H 37.743 42.553 35.207
H 38.404 41.217 34.144
H 36.673 41.476 34.807
N 33.933 37.143 35.568
C 34.112 38.474 35.993
C 32.781 39.084 36.035
C 31.899 38.072 35.662
C 32.625 36.922 35.432
C 32.474 40.534 36.503
H 33.355 41.2   36.338
H 31.592 40.877 35.862
H 32.213 40.593 37.58 
C 30.539 37.883 35.313
O 29.623 38.673 35.326
C 30.426 36.372 35.076
H 29.866 36.169 34.163
C 29.596 35.873 36.269
O 29.979 35.975 37.438
O 28.542 35.225 35.752
C 27.65  34.582 36.763
H 27.581 35.125 37.721
H 26.586 34.53  36.467
H 27.96  33.558 37.004
C 26.966 32.588 30.173
H 27.477 32.902 29.22 
H 26.538 33.525 30.694
C 25.85  31.58  29.949
H 25.47  31.009 30.856
C 25.134 31.469 28.827
C 25.316 32.381 27.653
H 24.471 32.484 26.931
H 25.568 33.287 28.088
H 26.133 32.055 27.068
C 23.835 30.74  28.879
H 23.893 29.983 29.623
H 23.664 30.144 28.016
C 22.654 31.655 29.069
H 21.995 31.686 28.144
H 22.918 32.73  29.15 
C 21.745 31.255 30.273
H 22.284 31.604 31.179
H 21.578 30.174 30.383
C 20.332 31.846 30.22 
H 19.958 31.495 29.229
C 20.388 33.391 30.134
H 19.46  33.87  30.001
H 20.973 33.779 31.027
H 20.911 33.729 29.238
C 19.295 31.446 31.341
H 19.021 30.445 31.276
H 18.464 32.117 31.161
C 19.654 31.789 32.83 
H 18.867 32.423 33.338
H 20.62  32.376 32.782
C 20.134 30.559 33.647
H 21.202 30.562 33.817
H 19.913 29.613 33.208
C 19.45  30.445 35.05 
H 18.57  31.035 34.931
C 20.271 31.179 36.118
H 20.766 32.077 35.902
H 19.613 31.316 36.908
H 21.042 30.522 36.453
C 19.061 28.983 35.533
H 18.671 29.173 36.541
H 19.916 28.286 35.605
C 17.828 28.326 34.831
H 17.944 28.21  33.782
H 17.052 29.073 34.965
C 17.388 27.016 35.541
H 16.304 27.137 35.656
H 17.818 26.923 36.541
C 17.541 25.767 34.67 
H 18.597 25.615 34.446
C 16.873 25.91  33.231
H 15.848 26.164 33.408
H 17.357 26.64  32.52 
H 16.799 24.967 32.71 
C 16.846 24.552 35.356
H 17.04  23.641 34.689
H 17.404 24.395 36.247
H 15.777 24.766 35.462
