137

Mg 21.045 27.546 29.23 
C 23.785 25.624 28.4  
C 22.722 28.631 31.988
H 23.279 29.104 32.828
C 18.315 29.217 30.188
H 17.374 29.795 30.492
C 19.444 26.246 26.504
H 19.054 25.791 25.564
N 22.99  27.177 30.108
C 24.023 26.424 29.534
C 25.328 26.649 30.369
H 25.74  25.683 30.753
C 24.896 27.474 31.634
H 25.378 28.402 31.497
C 23.428 27.747 31.263
C 25.116 26.793 33.004
H 26.155 26.443 33.099
H 24.837 27.465 33.863
H 24.51  25.906 33.139
C 26.407 27.35  29.52 
H 25.964 28.346 29.33 
H 26.479 26.751 28.651
C 27.813 27.297 30.205
H 27.757 26.751 31.164
H 28.555 26.844 29.502
C 28.523 28.556 30.651
O 29.563 29.025 30.195
O 27.773 29.253 31.609
N 20.623 28.808 30.847
C 21.418 29.151 31.902
C 20.67  30.069 32.804
C 19.43  30.29  32.255
C 19.413 29.457 31.022
C 21.223 30.512 34.207
H 20.467 30.367 34.923
H 22.102 29.887 34.435
H 21.39  31.582 34.178
C 18.212 30.979 32.806
H 17.252 30.481 32.701
C 18.215 32.098 33.62 
H 19.078 32.735 33.841
H 17.251 32.424 33.921
N 19.101 27.715 28.428
C 18.118 28.365 29.057
C 16.904 28.121 28.395
C 17.22  27.277 27.29 
C 18.608 27.002 27.358
C 15.572 28.835 28.743
H 14.77  28.364 28.18 
H 15.296 28.709 29.775
H 15.672 29.863 28.468
C 16.273 26.6   26.309
H 15.37  27.217 26.182
H 16.64  26.554 25.274
C 16.012 25.16  26.677
H 15.67  25.182 27.734
H 15.274 24.795 26.037
H 16.837 24.461 26.624
N 21.472 26.222 27.771
C 20.743 25.837 26.697
C 21.462 24.904 25.86 
C 22.713 24.758 26.497
C 22.617 25.599 27.63 
C 20.982 24.258 24.614
H 21.775 23.611 24.192
H 19.969 23.786 24.704
H 20.936 25.107 23.867
C 24.062 24.187 26.436
O 24.592 23.52  25.53 
C 24.839 24.738 27.67 
H 25.833 25.199 27.327
C 25.062 23.551 28.524
O 24.413 22.545 28.573
O 26.098 23.819 29.378
C 26.249 22.72  30.401
H 26.618 21.814 29.863
H 26.999 23.027 31.201
H 25.339 22.404 30.868
C 28.159 30.606 31.847
H 28.411 31.059 30.848
H 29.056 30.633 32.366
C 27.043 31.445 32.413
H 26.604 31.083 33.318
C 26.418 32.493 31.878
C 26.738 33.169 30.546
H 27.813 33.089 30.181
H 25.939 32.764 29.811
H 26.454 34.227 30.613
C 25.224 33.096 32.58 
H 24.995 32.632 33.534
H 24.472 32.894 31.862
C 25.337 34.627 32.878
H 26.329 35.006 32.702
H 25.277 34.779 33.975
C 24.253 35.448 32.105
H 23.526 34.81  31.578
H 24.72  36.133 31.328
C 23.356 36.354 32.98 
H 24.037 36.901 33.646
C 22.403 35.465 33.922
H 22.874 34.522 34.057
H 22.309 35.931 34.905
H 21.331 35.363 33.533
C 22.614 37.402 32.07 
H 21.988 37.842 32.783
H 22.169 36.781 31.291
C 23.475 38.507 31.44 
H 23.54  38.136 30.419
H 24.533 38.48  31.874
C 22.696 39.864 31.347
H 23.234 40.6   31.951
H 21.69  39.855 31.738
C 22.648 40.458 29.927
H 22.188 39.74  29.239
C 24.115 40.801 29.41 
H 24.79  39.959 29.313
H 24.037 41.328 28.399
H 24.612 41.514 30.074
C 21.613 41.64  29.821
H 21.995 42.614 30.113
H 20.849 41.449 30.541
C 20.87  41.735 28.449
H 19.807 41.692 28.769
H 21.079 40.902 27.732
C 21.399 42.957 27.733
H 21.871 42.665 26.817
H 22.245 43.496 28.144
C 20.395 44.087 27.402
H 19.625 43.629 26.784
C 21.056 45.137 26.439
H 20.343 45.936 26.237
H 21.971 45.51  26.837
H 21.25  44.521 25.582
C 19.835 44.801 28.64 
H 20.7   45.165 29.125
H 19.125 45.601 28.527
H 19.329 44.127 29.329
