137

Mg 21.925 16.388 25.397
C 23.    17.829 22.466
C 24.036 18.556 27.122
H 24.604 19.303 27.597
C 20.58  15.353 28.239
H 20.132 15.071 29.174
C 19.7   14.502 23.586
H 19.162 13.771 23.005
N 23.322 17.949 24.861
C 23.667 18.355 23.579
C 24.798 19.373 23.624
H 25.551 18.842 23.044
C 25.315 19.419 25.08 
H 25.398 20.417 25.481
C 24.095 18.636 25.752
C 26.683 18.711 25.277
H 26.692 17.647 24.971
H 27.61  19.1   24.929
H 26.854 18.903 26.312
C 24.344 20.751 23.108
H 23.908 21.338 23.913
H 23.675 20.584 22.269
C 25.485 21.605 22.537
H 26.442 21.141 22.287
H 25.181 22.006 21.61 
C 25.903 22.875 23.218
O 27.085 23.131 23.412
O 24.854 23.689 23.428
N 22.334 16.827 27.366
C 23.17  17.767 27.952
C 23.082 17.805 29.348
C 22.085 16.883 29.689
C 21.627 16.324 28.447
C 23.866 18.734 30.226
H 24.696 19.322 29.807
H 23.205 19.41  30.721
H 24.289 17.982 30.873
C 21.552 16.439 31.024
H 21.431 15.353 31.271
C 21.219 17.267 32.036
H 21.197 18.416 32.067
H 20.77  16.91  33.035
N 20.467 14.964 25.861
C 20.064 14.699 27.144
C 19.133 13.684 27.151
C 18.813 13.435 25.797
C 19.654 14.344 24.995
C 18.636 13.147 28.453
H 19.549 12.793 28.909
H 18.088 13.903 28.966
H 18.009 12.3   28.218
C 17.781 12.389 25.323
H 18.034 11.942 24.343
H 17.716 11.484 25.958
C 16.43  12.951 25.054
H 16.459 13.673 24.227
H 15.691 12.187 24.752
H 16.091 13.267 25.996
N 21.419 16.243 23.51 
C 20.509 15.348 22.869
C 20.628 15.449 21.471
C 21.603 16.451 21.316
C 22.061 16.847 22.53 
C 19.873 14.79  20.381
H 20.378 14.952 19.391
H 19.674 13.749 20.587
H 18.877 15.309 20.372
C 22.28  17.269 20.308
O 22.202 17.331 19.107
C 23.151 18.232 21.027
H 22.75  19.195 20.786
C 24.569 18.143 20.647
O 25.196 17.09  20.565
O 25.114 19.366 20.335
C 26.537 19.166 19.881
H 26.966 20.18  19.637
H 27.057 18.857 20.783
H 26.623 18.509 19.012
C 25.32  25.047 23.781
H 25.958 25.472 22.97 
H 25.861 24.942 24.704
C 24.061 25.767 24.163
H 23.307 25.243 24.662
C 23.686 26.956 23.787
C 24.473 27.878 22.948
H 25.491 27.542 22.79 
H 23.958 27.969 22.02 
H 24.512 28.881 23.275
C 22.283 27.407 24.196
H 21.541 26.588 24.091
H 22.068 28.347 23.602
C 22.147 27.937 25.666
H 22.863 28.749 25.86 
H 22.546 27.122 26.351
C 20.723 28.513 25.953
H 20.202 27.826 26.617
H 20.252 28.306 25.01 
C 20.658 29.99  26.509
H 21.401 30.501 25.906
C 21.125 30.019 27.94 
H 21.339 31.044 28.27 
H 20.339 29.534 28.59 
H 22.039 29.498 27.955
C 19.323 30.788 26.339
H 19.436 31.717 26.782
H 18.522 30.288 26.959
C 18.78  30.983 24.94 
H 17.764 30.561 24.887
H 19.398 30.383 24.238
C 18.948 32.493 24.535
H 19.061 32.432 23.523
H 19.853 32.954 24.94 
C 17.783 33.431 24.825
H 17.074 33.087 24.114
C 18.273 34.872 24.59 
H 18.959 35.205 25.294
H 18.833 34.992 23.638
H 17.484 35.605 24.537
C 17.181 33.362 26.27 
H 17.987 33.749 26.993
H 16.913 32.323 26.515
C 16.033 34.369 26.596
H 15.317 34.41  25.837
H 16.439 35.361 26.693
C 15.343 33.753 27.805
H 15.753 32.834 28.211
H 14.342 33.457 27.678
C 15.398 34.65  29.118
H 16.37  35.032 29.359
C 14.78  33.842 30.311
H 15.483 33.065 30.612
H 14.756 34.452 31.221
H 13.797 33.378 30.055
C 14.475 35.903 28.913
H 14.903 36.588 28.211
H 13.476 35.705 28.52 
H 14.482 36.434 29.864
