137

Mg 33.201 37.345 34.092
C 30.182 35.648 33.611
C 34.837 34.309 33.372
H 35.389 33.393 33.18 
C 36.268 38.687 34.828
H 37.192 39.116 34.965
C 31.527 40.044 35.212
H 31.024 41.009 35.351
N 32.567 35.227 33.594
C 31.269 34.776 33.462
C 31.217 33.276 33.124
H 30.6   32.715 33.85 
C 32.741 32.894 33.293
H 33.078 32.344 32.412
C 33.45  34.232 33.368
C 33.023 32.068 34.601
H 33.146 32.669 35.52 
H 32.237 31.343 34.679
H 33.874 31.4   34.326
C 30.823 32.993 31.67 
H 31.509 33.57  30.987
H 29.833 33.365 31.747
C 30.603 31.468 31.403
H 31.674 31.086 31.316
H 30.269 30.829 32.227
C 29.859 31.043 30.179
O 30.34  30.584 29.14 
O 28.543 31.312 30.42 
N 35.189 36.586 34.157
C 35.619 35.315 33.907
C 37.005 35.169 34.096
C 37.44  36.422 34.43 
C 36.33  37.326 34.435
C 37.877 33.941 33.88 
H 37.662 33.163 34.617
H 37.593 33.57  32.889
H 38.966 34.069 33.805
C 38.817 36.917 34.697
H 39.03  37.903 34.393
C 39.726 36.247 35.384
H 39.629 35.227 35.823
H 40.644 36.732 35.704
N 33.849 39.076 34.817
C 35.125 39.467 34.942
C 35.146 40.887 35.269
C 33.83  41.234 35.595
C 32.979 40.11  35.162
C 36.378 41.734 35.362
H 37.305 41.238 35.8  
H 36.702 42.174 34.439
H 36.058 42.62  35.933
C 33.231 42.562 35.938
H 32.29  42.472 36.546
H 33.873 43.138 36.645
C 32.964 43.482 34.704
H 32.656 44.496 35.136
H 33.852 43.521 34.113
H 32.225 43.06  34.007
N 31.254 37.784 34.358
C 30.765 38.927 34.774
C 29.285 38.838 34.828
C 29.032 37.582 34.317
C 30.252 37.007 34.049
C 28.303 39.888 35.261
H 28.759 40.236 36.176
H 28.184 40.614 34.482
H 27.399 39.35  35.5  
C 28.004 36.657 33.96 
O 26.779 36.782 34.07 
C 28.721 35.417 33.373
H 28.597 35.224 32.344
C 28.203 34.221 34.191
O 28.327 34.069 35.395
O 27.696 33.328 33.28 
C 27.39  31.944 33.704
H 27.706 31.818 34.709
H 26.361 31.797 33.509
H 27.899 31.158 33.092
C 27.689 31.2   29.286
H 27.717 30.143 28.862
H 28.032 31.939 28.594
C 26.271 31.569 29.602
H 26.025 32.644 29.577
C 25.253 30.735 29.89 
C 25.504 29.262 29.92 
H 25.354 28.763 28.937
H 26.502 29.25  30.421
H 24.796 28.886 30.721
C 23.952 31.304 30.438
H 23.925 32.42  30.286
H 23.918 31.113 31.481
C 22.791 30.83  29.609
H 23.049 30.659 28.553
H 22.125 31.721 29.524
C 22.032 29.674 30.278
H 20.986 29.965 30.444
H 22.533 29.385 31.204
C 21.872 28.388 29.347
H 22.846 28.357 28.858
C 20.757 28.576 28.273
H 20.652 27.769 27.625
H 19.908 28.759 28.864
H 20.953 29.431 27.632
C 21.502 27.227 30.368
H 22.334 27.074 31.108
H 21.637 26.319 29.77 
C 20.131 27.204 31.109
H 19.483 26.485 30.611
H 19.75  28.266 31.024
C 20.398 26.811 32.547
H 21.457 26.784 32.832
H 20.099 25.755 32.74 
C 19.566 27.645 33.626
H 18.564 27.761 33.323
C 20.28  29.103 33.696
H 20.201 29.521 32.7  
H 19.734 29.742 34.418
H 21.323 28.986 33.985
C 19.424 27.009 35.011
H 18.748 27.737 35.528
H 20.432 27.033 35.427
C 18.843 25.566 35.131
H 19.625 25.034 35.63 
H 18.677 25.133 34.099
C 17.507 25.565 35.89 
H 16.616 25.192 35.344
H 17.248 26.553 36.347
C 17.677 24.627 37.14 
H 18.595 24.836 37.662
C 17.791 23.153 36.722
H 18.173 22.548 37.533
H 16.79  22.972 36.459
H 18.43  23.017 35.829
C 16.579 24.777 38.244
H 15.68  24.416 37.866
H 16.87  24.242 39.157
H 16.471 25.843 38.447
