137

Mg 29.449 30.922 33.803
C 26.803 30.128 35.92 
C 27.199 31.107 31.2  
H 26.537 31.054 30.335
C 31.892 32.051 31.72 
H 32.764 32.193 31.121
C 31.689 30.303 36.321
H 32.363 30.197 37.168
N 27.263 30.777 33.666
C 26.385 30.479 34.657
C 25.021 30.466 34.296
H 24.641 29.491 34.472
C 25.146 30.538 32.703
H 24.556 31.411 32.382
C 26.647 30.825 32.47 
C 24.627 29.294 31.859
H 24.458 29.518 30.841
H 25.473 28.579 32.064
H 23.696 28.886 32.209
C 24.208 31.661 35.005
H 24.461 32.585 34.499
H 24.414 31.542 36.03 
C 22.674 31.493 34.805
H 22.43  30.439 34.812
H 22.114 31.888 35.662
C 22.119 32.073 33.524
O 22.656 32.98  32.956
O 20.926 31.512 33.168
N 29.493 31.467 31.785
C 28.5   31.459 30.905
C 28.986 31.763 29.545
C 30.299 32.059 29.723
C 30.615 31.838 31.118
C 28.118 31.794 28.324
H 27.068 31.932 28.465
H 28.425 32.678 27.699
H 28.155 30.85  27.737
C 31.262 32.526 28.636
H 31.847 33.439 28.677
C 31.425 31.778 27.538
H 31.03  30.791 27.332
H 32.093 32.253 26.721
N 31.506 31.13  33.978
C 32.299 31.678 33.053
C 33.628 31.777 33.596
C 33.625 31.243 34.924
C 32.236 30.906 35.119
C 34.704 32.555 32.853
H 34.912 32.073 31.903
H 34.455 33.641 32.714
H 35.627 32.422 33.404
C 34.795 31.094 35.982
H 34.556 30.248 36.628
H 35.683 30.988 35.432
C 34.829 32.371 36.79 
H 33.86  32.693 37.092
H 35.45  32.354 37.627
H 35.115 33.163 36.139
N 29.308 30.335 35.691
C 30.361 30.049 36.56 
C 29.75  29.562 37.847
C 28.338 29.519 37.602
C 28.13  30.087 36.291
C 30.556 29.096 39.103
H 30.804 29.973 39.764
H 29.97  28.312 39.617
H 31.45  28.647 38.707
C 27.068 29.024 38.07 
O 26.758 28.486 39.124
C 26.005 29.492 37.065
H 25.215 30.081 37.587
C 25.45  28.233 36.7  
O 26.105 27.258 36.318
O 24.124 28.208 36.735
C 23.544 27.034 36.035
H 24.085 26.078 36.108
H 22.618 26.939 36.614
H 23.215 27.015 34.994
C 20.437 32.11  31.943
H 21.199 32.196 31.201
H 19.945 33.038 32.132
C 19.308 31.123 31.618
H 18.606 30.77  32.385
C 19.155 30.427 30.462
C 20.094 30.434 29.32 
H 20.906 31.16  29.467
H 20.439 29.472 29.029
H 19.645 30.88  28.446
C 18.017 29.426 30.316
H 17.96  28.986 31.352
H 18.282 28.595 29.693
C 16.668 30.032 30.001
H 16.651 31.09  30.342
H 15.795 29.536 30.574
C 16.36  29.914 28.47 
H 17.31  29.832 27.997
H 15.996 30.885 28.166
C 15.33  28.846 28.007
H 15.37  28.    28.653
C 15.632 28.451 26.628
H 16.632 28.077 26.447
H 15.03  27.566 26.404
H 15.377 29.202 25.848
C 13.831 29.236 28.247
H 13.587 29.451 29.303
H 13.3   28.432 27.98 
C 13.379 30.545 27.525
H 14.183 31.026 26.983
H 13.165 31.328 28.208
C 12.255 30.261 26.508
H 12.264 29.21  26.058
H 12.525 30.861 25.684
C 10.829 30.735 26.975
H 10.942 31.816 27.221
C 10.185 29.895 28.071
H  9.808 29.021 27.526
H 10.989 29.678 28.762
H  9.461 30.51  28.596
C  9.726 30.906 25.804
H  9.408 29.889 25.59 
H 10.218 31.288 24.907
C  8.458 31.806 26.164
H  8.721 32.793 26.431
H  7.948 31.394 26.996
C  7.415 31.978 25.045
H  7.876 31.286 24.366
H  7.342 32.976 24.598
C  6.01  31.385 25.296
H  6.146 30.39  25.735
C  5.164 31.182 23.998
H  5.645 30.4   23.314
H  4.197 30.862 24.364
H  5.072 32.095 23.486
C  5.157 32.167 26.408
H  5.71  32.414 27.304
H  4.912 33.082 26.002
H  4.244 31.616 26.705
