137

Mg 30.281 29.727 34.694
C 28.821 29.528 37.739
C 27.267 30.266 33.164
H 26.282 30.314 32.663
C 31.895 30.041 31.779
H 32.417 30.129 30.844
C 33.423 29.434 36.285
H 34.356 29.567 36.785
N 28.306 29.868 35.335
C 27.906 29.767 36.681
C 26.464 29.801 36.789
H 26.153 28.892 37.244
C 25.959 29.777 35.292
H 25.269 30.651 35.177
C 27.261 30.011 34.573
C 25.302 28.527 34.772
H 25.043 28.575 33.722
H 26.021 27.717 34.953
H 24.392 28.282 35.329
C 25.976 30.993 37.702
H 26.253 31.918 37.22 
H 26.584 30.95  38.55 
C 24.497 31.067 38.076
H 24.242 30.059 38.115
H 24.322 31.522 39.   
C 23.676 31.701 37.039
O 23.519 32.875 36.856
O 23.042 30.714 36.298
N 29.671 30.122 32.776
C 28.403 30.316 32.327
C 28.396 30.292 30.92 
C 29.697 30.14  30.486
C 30.509 30.153 31.677
C 27.198 30.48  30.068
H 26.606 31.371 30.434
H 27.33  30.721 28.96 
H 26.541 29.665 30.236
C 30.177 30.125 29.096
H 31.122 30.563 28.971
C 29.57  29.52  28.062
H 28.57  29.154 28.283
H 30.141 29.46  27.104
N 32.37  29.534 34.119
C 32.819 29.818 32.884
C 34.262 29.732 32.753
C 34.658 29.671 34.112
C 33.426 29.545 34.928
C 35.003 29.893 31.522
H 34.551 30.832 31.128
H 36.06  29.956 31.828
H 34.773 29.063 30.908
C 36.066 29.555 34.632
H 36.025 29.012 35.505
H 36.663 28.929 33.927
C 36.7   30.965 34.853
H 37.599 30.964 35.476
H 36.745 31.57  33.953
H 35.944 31.497 35.446
N 31.029 29.551 36.622
C 32.26  29.389 37.139
C 32.236 29.184 38.634
C 30.863 29.116 38.814
C 30.179 29.442 37.603
C 33.468 28.917 39.495
H 34.226 29.618 39.377
H 33.258 28.982 40.596
H 33.848 27.906 39.265
C 29.902 28.774 39.824
O 30.016 28.334 40.949
C 28.535 29.227 39.207
H 28.244 29.988 39.883
C 27.572 28.102 39.352
O 27.66  27.018 38.782
O 26.5   28.451 40.038
C 25.544 27.437 40.531
H 25.198 26.808 39.797
H 26.053 26.811 41.239
H 24.777 28.042 40.972
C 22.136 31.224 35.302
H 22.736 31.74  34.506
H 21.339 31.901 35.719
C 21.509 29.958 34.796
H 21.252 29.125 35.51 
C 21.472 29.592 33.488
C 22.093 30.266 32.268
H 21.263 30.349 31.615
H 22.616 31.216 32.385
H 22.839 29.576 31.708
C 21.269 28.044 33.287
H 21.094 27.585 34.254
H 22.166 27.61  32.784
C 20.015 27.529 32.518
H 19.463 28.439 32.213
H 19.353 26.869 33.094
C 20.269 26.798 31.161
H 21.204 26.222 31.181
H 20.383 27.47  30.372
C 19.115 25.794 30.61 
H 18.947 25.149 31.373
C 19.653 25.008 29.33 
H 18.811 24.363 28.989
H 19.808 25.672 28.511
H 20.588 24.495 29.602
C 17.716 26.508 30.288
H 17.511 27.055 31.193
H 17.028 25.744 30.177
C 17.724 27.448 29.035
H 17.272 26.969 28.213
H 18.729 27.676 28.658
C 16.911 28.783 29.101
H 16.134 28.798 29.949
H 16.357 28.685 28.147
C 17.753 30.168 29.122
H 18.498 30.21  28.336
C 18.452 30.439 30.466
H 19.335 29.804 30.509
H 18.848 31.443 30.541
H 17.883 30.129 31.36 
C 16.777 31.296 28.837
H 16.294 31.569 29.789
H 15.922 30.981 28.166
C 17.341 32.63  28.378
H 18.361 32.504 27.944
H 17.293 33.186 29.267
C 16.368 33.353 27.371
H 16.271 32.633 26.596
H 16.826 34.261 26.963
C 15.072 33.731 28.031
H 14.709 32.953 28.744
C 13.885 33.776 27.089
H 13.589 32.705 26.85 
H 12.994 34.289 27.485
H 14.175 34.336 26.175
C 15.256 35.072 28.818
H 14.31  35.525 29.203
H 15.794 34.752 29.747
H 15.811 35.779 28.259
