137

Mg 35.128 31.224 34.886
C 33.351 29.254 32.659
C 37.785 31.095 32.776
H 38.745 30.919 32.229
C 37.066 32.787 37.274
H 37.687 33.27  37.99 
C 32.66  30.831 37.153
H 31.923 30.727 37.93 
N 35.57  30.256 32.932
C 34.657 29.549 32.19 
C 35.299 29.086 30.831
H 35.107 28.    30.565
C 36.814 29.384 31.063
H 37.22  30.016 30.264
C 36.737 30.311 32.331
C 37.739 28.206 31.247
H 37.452 27.629 32.147
H 37.578 27.572 30.34 
H 38.781 28.508 31.248
C 34.762 29.938 29.635
H 34.941 30.991 29.756
H 33.712 29.718 29.832
C 35.215 29.572 28.223
H 35.638 30.392 27.725
H 35.843 28.751 28.285
C 34.067 29.118 27.309
O 33.857 29.683 26.289
O 33.245 28.225 27.955
N 36.941 31.977 34.924
C 37.887 31.93  33.894
C 39.096 32.632 34.239
C 38.909 33.114 35.589
C 37.549 32.662 35.975
C 40.305 32.922 33.385
H 41.032 33.614 33.818
H 40.889 31.98  33.44 
H 40.112 33.08  32.285
C 39.731 34.017 36.47 
H 39.8   33.823 37.515
C 40.475 35.066 35.984
H 40.471 35.38  34.938
H 41.135 35.616 36.622
N 34.94  31.709 36.913
C 35.866 32.379 37.717
C 35.278 32.637 39.102
C 34.028 32.211 39.04 
C 33.787 31.542 37.621
C 36.075 33.346 40.21 
H 37.151 33.129 40.154
H 35.874 34.424 40.232
H 35.859 32.942 41.166
C 33.099 32.339 40.187
H 32.718 31.36  40.42 
H 33.594 32.681 41.079
C 31.858 33.285 39.964
H 31.288 33.247 40.818
H 32.23 34.31 39.9 
H 31.334 32.941 39.038
N 33.426 30.263 34.989
C 32.473 30.238 35.933
C 31.303 29.467 35.501
C 31.632 29.079 34.204
C 32.91  29.552 33.97 
C 30.065 29.298 36.315
H 29.593 30.311 36.348
H 29.489 28.529 35.835
H 30.383 28.91  37.296
C 31.116 28.402 33.102
O 29.98  27.916 32.942
C 32.292 28.249 32.028
H 31.939 28.552 31.056
C 32.791 26.82  31.869
O 33.913 26.425 32.156
O 31.755 25.893 31.63 
C 32.015 24.46  31.65 
H 32.569 24.137 30.766
H 32.642 24.359 32.52 
H 31.151 23.766 31.812
C 31.857 28.469 27.562
H 31.706 28.445 26.482
H 31.412 29.405 27.958
C 31.095 27.387 28.284
H 30.812 27.641 29.305
C 30.42  26.348 27.718
C 30.515 25.843 26.221
H 29.494 25.831 25.74 
H 31.245 26.43  25.611
H 30.797 24.791 26.171
C 29.707 25.387 28.717
H 29.771 25.752 29.682
H 30.378 24.541 28.657
C 28.253 25.097 28.317
H 28.105 24.024 28.041
H 27.993 25.705 27.42 
C 27.165 25.309 29.378
H 27.01  26.367 29.335
H 27.544 25.296 30.434
C 25.905 24.436 29.297
H 26.238 23.342 29.364
C 25.227 24.719 27.939
H 24.418 23.954 27.851
H 24.798 25.707 27.983
H 25.881 24.731 27.111
C 25.028 24.69  30.544
H 25.796 24.438 31.337
H 24.284 23.883 30.491
C 24.237 25.995 30.762
H 23.221 25.701 30.805
H 24.325 26.729 30.003
C 24.54  26.773 32.007
H 24.623 27.828 31.778
H 25.584 26.481 32.316
C 23.54  26.793 33.184
H 22.562 27.144 32.863
C 24.039 27.797 34.236
H 24.264 28.699 33.643
H 23.322 27.927 35.01 
H 24.98  27.537 34.684
C 23.364 25.416 33.815
H 24.306 25.139 34.187
H 23.117 24.535 33.151
C 22.222 25.28  34.809
H 21.439 24.645 34.39 
H 21.778 26.298 35.065
C 22.677 24.727 36.138
H 22.166 25.319 36.906
H 23.764 24.99  36.4  
C 22.455 23.183 36.293
H 22.818 22.84  35.365
C 20.945 23.019 36.456
H 20.822 21.898 36.305
H 20.678 23.229 37.5  
H 20.334 23.676 35.761
C 23.241 22.471 37.496
H 22.925 21.477 37.405
H 24.34 22.7  37.38
H 22.792 22.9   38.377
