137

Mg 20.641 32.414 32.997
C 20.569 29.07  33.795
C 17.629 32.896 34.511
H 16.755 33.028 35.034
C 20.894 35.719 32.08 
H 20.937 36.795 31.756
C 23.797 31.861 31.412
H 24.758 31.651 30.865
N 19.352 31.113 34.117
C 19.493 29.775 34.293
C 18.364 29.279 35.056
H 17.987 28.486 34.485
C 17.301 30.372 35.079
H 17.065 30.679 36.141
C 18.116 31.551 34.5  
C 15.986 30.117 34.283
H 16.094 29.717 33.298
H 15.31  29.482 34.912
H 15.53  31.052 33.957
C 18.677 28.801 36.517
H 18.673 29.692 37.184
H 19.672 28.401 36.634
C 17.68  27.706 37.01 
H 17.122 27.191 36.197
H 18.347 27.003 37.538
C 16.651 28.091 38.098
O 16.626 27.722 39.294
O 15.693 28.852 37.48 
N 19.471 34.026 33.335
C 18.305 34.079 34.014
C 17.868 35.474 34.122
C 18.756 36.275 33.341
C 19.815 35.351 32.924
C 16.581 35.916 34.813
H 15.752 36.012 34.112
H 16.242 35.097 35.398
H 16.798 36.756 35.378
C 18.822 37.754 33.206
H 19.655 38.095 32.587
C 18.122 38.752 33.828
H 17.201 38.609 34.485
H 18.352 39.748 33.519
N 22.102 33.602 31.95 
C 22.011 34.936 31.729
C 23.216 35.427 31.153
C 24.026 34.305 30.947
C 23.33  33.183 31.445
C 23.505 36.939 30.904
H 22.834 37.292 30.126
H 23.408 37.544 31.884
H 24.545 37.109 30.599
C 25.482 34.37  30.477
H 25.81  33.445 30.106
H 25.655 35.071 29.695
C 26.5   34.581 31.602
H 26.643 35.632 31.869
H 26.189 34.053 32.457
H 27.42  34.245 31.198
N 21.93  30.904 32.63 
C 23.179 30.764 31.995
C 23.62  29.378 32.   
C 22.594 28.687 32.625
C 21.655 29.626 33.095
C 24.931 28.967 31.356
H 24.919 27.906 31.305
H 24.893 29.27  30.34 
H 25.775 29.304 31.844
C 22.226 27.322 33.052
O 22.825 26.258 32.909
C 20.864 27.576 33.859
H 21.041 27.328 34.862
C 19.872 26.789 33.187
O 19.731 26.803 31.978
O 19.079 25.979 34.045
C 18.076 25.068 33.43 
H 17.943 24.23  34.177
H 17.105 25.567 33.191
H 18.383 24.585 32.499
C 14.638 29.417 38.32 
H 14.982 29.966 39.18 
H 13.937 28.663 38.683
C 13.761 30.164 37.406
H 13.363 29.677 36.494
C 13.479 31.513 37.409
C 13.931 32.556 38.361
H 14.182 33.517 37.829
H 13.14  32.828 39.016
H 14.784 32.266 38.938
C 12.654 32.168 36.287
H 12.35  31.358 35.55 
H 13.109 32.953 35.702
C 11.259 32.649 36.735
H 11.296 33.738 36.924
H 11.059 32.272 37.782
C 10.074 32.221 35.767
H  9.627 31.194 35.899
H 10.455 32.147 34.815
C  8.824 33.245 35.685
H  8.565 33.419 36.73 
C  7.453 32.798 35.113
H  6.902 33.753 34.938
H  7.655 32.188 34.208
H  6.903 32.174 35.798
C  9.228 34.601 35.002
H  9.844 35.117 35.758
H  8.34  35.221 34.91 
C  9.904 34.636 33.68 
H  9.093 34.587 32.915
H 10.529 33.759 33.551
C 10.809 35.855 33.392
H 11.749 35.394 33.284
H 10.946 36.469 34.258
C 10.574 36.911 32.236
H  9.634 37.355 32.585
C 10.413 36.371 30.826
H 11.352 35.939 30.44 
H  9.597 35.637 30.771
H 10.003 37.203 30.166
C 11.669 38.124 32.231
H 11.489 38.759 31.428
H 12.642 37.601 31.985
C 11.633 39.031 33.505
H 10.737 38.831 34.031
H 11.519 39.998 33.072
C 12.886 38.913 34.393
H 13.385 37.965 34.197
H 12.568 38.811 35.388
C 13.818 40.157 34.328
H 13.177 40.948 34.529
C 14.605 40.248 32.96 
H 13.889 40.331 32.146
H 15.226 41.178 32.934
H 15.262 39.351 32.925
C 14.733 40.248 35.483
H 15.203 41.228 35.544
H 14.102 40.262 36.333
H 15.34  39.391 35.556
