137

Mg 24.131 29.216 38.527
C 22.724 26.709 40.472
C 20.96  30.243 37.659
H 19.966 30.636 37.316
C 25.592 31.615 36.769
H 26.009 32.511 36.316
C 27.25  28.23  39.676
H 28.266 27.97  39.985
N 22.081 28.587 39.012
C 21.776 27.538 39.91 
C 20.246 27.435 40.074
H 20.06  26.407 39.767
C 19.676 28.484 39.058
H 19.21  29.366 39.584
C 20.984 29.136 38.513
C 18.827 27.917 37.936
H 18.316 28.681 37.427
H 19.339 27.278 37.207
H 18.206 27.208 38.393
C 19.817 27.725 41.609
H 20.141 28.708 41.858
H 20.371 27.102 42.312
C 18.266 27.488 41.853
H 17.87  27.096 40.916
H 18.132 26.767 42.681
C 17.32  28.572 42.308
O 16.466 28.453 43.166
O 17.649 29.801 41.737
N 23.404 30.779 37.407
C 22.094 31.041 37.154
C 22.037 32.057 36.14 
C 23.364 32.446 35.842
C 24.221 31.634 36.663
C 20.742 32.438 35.513
H 20.246 33.103 36.207
H 20.851 32.939 34.485
H 20.085 31.609 35.365
C 23.937 33.338 34.766
H 24.962 33.843 34.938
C 23.371 33.434 33.523
H 22.447 32.883 33.236
H 23.893 34.008 32.722
N 26.1   29.883 38.32 
C 26.47  30.859 37.489
C 27.895 31.095 37.614
C 28.425 30.121 38.463
C 27.255 29.32  38.856
C 28.606 32.214 36.918
H 29.504 32.512 37.498
H 28.874 32.069 35.847
H 27.934 33.054 36.925
C 29.909 29.872 38.844
H 30.184 28.871 38.471
H 30.574 30.583 38.394
C 30.16  30.027 40.4  
H 29.507 29.296 41.035
H 31.149 29.979 40.676
H 29.903 31.006 40.849
N 24.942 27.802 39.654
C 26.186 27.411 40.071
C 26.207 26.252 40.911
C 24.856 25.872 40.948
C 24.151 26.902 40.27 
C 27.337 25.632 41.698
H 28.145 26.322 41.729
H 26.981 25.26  42.668
H 27.704 24.788 41.153
C 23.914 24.974 41.65 
O 24.155 24.121 42.514
C 22.545 25.416 41.19 
H 21.954 25.39  42.113
C 22.05  24.247 40.327
O 22.627 23.737 39.362
O 20.772 23.855 40.709
C 20.054 22.972 39.753
H 19.08  22.579 40.064
H 20.037 23.574 38.831
H 20.541 22.002 39.568
C 16.774 30.944 42.168
H 16.872 31.091 43.275
H 15.751 30.696 42.043
C 17.221 32.227 41.46 
H 17.028 32.163 40.381
C 17.613 33.447 41.934
C 17.463 33.848 43.344
H 16.86  34.792 43.211
H 16.89  33.123 43.981
H 18.43  34.08  43.802
C 18.128 34.519 40.979
H 18.658 33.872 40.249
H 18.847 35.15  41.441
C 16.959 35.29  40.305
H 17.154 36.286 40.54 
H 16.014 35.003 40.729
C 16.97  35.063 38.763
H 15.975 34.648 38.619
H 17.629 34.275 38.515
C 17.37  36.249 37.928
H 16.671 36.996 38.126
C 17.278 35.965 36.448
H 18.109 35.466 36.072
H 16.379 35.362 36.351
H 17.246 36.915 35.896
C 18.83  36.777 38.188
H 19.064 37.046 39.2  
H 18.823 37.652 37.577
C 20.062 36.106 37.782
H 19.987 35.311 37.037
H 20.373 35.64  38.74 
C 21.163 37.115 37.308
H 21.962 37.025 37.965
H 20.802 38.139 37.432
C 21.836 36.784 35.914
H 21.889 35.697 35.949
C 23.202 37.51  35.629
H 23.739 36.983 34.869
H 22.923 38.504 35.232
H 23.827 37.65  36.596
C 20.79  37.129 34.701
H 21.034 38.107 34.427
H 19.78  37.336 35.189
C 20.749 36.08  33.597
H 21.378 35.277 33.98 
H 21.4   36.383 32.757
C 19.367 35.505 33.272
H 18.586 36.137 33.655
H 19.236 34.572 33.842
C 19.141 35.099 31.849
H 20.045 34.604 31.522
C 18.846 36.334 30.904
H 19.507 37.171 31.033
H 18.979 36.054 29.855
H 17.841 36.653 31.149
C 17.924 34.078 31.74 
H 18.012 33.673 30.75 
H 17.99  33.192 32.365
H 16.945 34.655 31.9  
