137

Mg 36.452 33.322 35.492
C 33.826 31.203 34.17 
C 38.306 32.439 32.865
H 38.917 32.145 31.998
C 39.077 34.819 36.989
H 39.956 35.388 37.393
C 34.645 33.572 38.393
H 34.009 33.727 39.29 
N 36.052 32.167 33.661
C 34.949 31.369 33.35 
C 35.15  30.791 31.959
H 34.948 29.734 31.996
C 36.622 30.898 31.759
H 36.877 31.295 30.737
C 37.068 31.935 32.815
C 37.455 29.587 31.864
H 38.454 29.658 31.341
H 37.56  29.461 32.992
H 36.976 28.723 31.375
C 34.296 31.546 30.971
H 34.746 32.42  30.88 
H 33.358 31.676 31.363
C 34.155 30.729 29.629
H 34.77  31.134 28.79 
H 34.729 29.836 29.831
C 32.704 30.399 29.224
O 32.201 29.28  29.214
O 32.098 31.542 28.888
N 38.285 33.871 34.87 
C 38.98  33.281 33.756
C 40.287 33.892 33.635
C 40.52  34.606 34.877
C 39.274 34.422 35.696
C 41.175 33.761 32.408
H 41.982 34.517 32.414
H 41.578 32.74  32.345
H 40.594 33.739 31.484
C 41.816 35.283 35.38 
H 41.716 36.071 36.117
C 43.095 35.011 34.892
H 43.175 34.155 34.154
H 44.047 35.51  35.198
N 36.819 34.096 37.385
C 37.967 34.74  37.777
C 37.809 35.222 39.197
C 36.481 34.849 39.573
C 35.87  34.189 38.386
C 38.92 35.81 40.01
H 39.53  36.552 39.489
H 38.615 36.205 40.999
H 39.553 34.92  40.139
C 35.738 35.085 40.85 
H 35.144 34.204 41.161
H 36.423 35.167 41.677
C 34.711 36.194 40.891
H 33.899 35.911 41.57 
H 35.092 37.13  41.269
H 34.294 36.508 39.967
N 34.669 32.511 36.16 
C 34.038 32.801 37.357
C 32.704 32.093 37.449
C 32.608 31.441 36.186
C 33.776 31.743 35.443
C 31.662 32.058 38.58 
H 31.166 33.061 38.65 
H 30.823 31.43  38.345
H 32.127 31.785 39.506
C 31.823 30.557 35.362
O 30.743 30.035 35.556
C 32.622 30.348 34.028
H 32.096 30.627 33.112
C 32.865 28.908 33.914
O 33.802 28.31  34.453
O 31.917 28.326 33.234
C 31.849 26.876 33.448
H 31.614 26.585 34.429
H 31.009 26.597 32.771
H 32.805 26.501 33.102
C 30.681 31.319 28.784
H 30.13  31.185 29.691
H 30.478 30.41  28.148
C 30.213 32.533 28.043
H 30.886 32.874 27.271
C 29.219 33.42  28.319
C 28.245 33.254 29.471
H 28.401 32.358 30.159
H 28.46  34.055 30.191
H 27.185 33.31  29.162
C 29.032 34.727 27.591
H 30.032 34.968 27.209
H 28.737 35.567 28.209
C 28.028 34.64  26.384
H 27.769 33.53  26.307
H 28.36  34.956 25.363
C 26.687 35.352 26.682
H 26.719 36.024 27.523
H 25.916 34.578 26.811
C 26.017 36.223 25.502
H 26.078 35.55  24.652
C 26.905 37.457 25.096
H 27.14  38.07  25.993
H 27.798 36.959 24.759
H 26.529 38.066 24.294
C 24.53  36.566 25.741
H 24.135 37.425 25.214
H 24.456 36.912 26.748
C 23.442 35.42  25.527
H 23.853 34.568 24.957
H 22.545 35.74  25.012
C 22.982 34.851 26.872
H 22.    35.327 26.973
H 23.657 35.222 27.671
C 22.929 33.329 27.187
H 23.927 32.869 27.14 
C 22.127 32.568 26.071
H 21.866 31.553 26.371
H 21.185 33.072 25.918
H 22.667 32.458 25.142
C 22.349 33.097 28.621
H 22.071 32.056 28.85 
H 21.435 33.735 28.605
C 23.326 33.656 29.695
H 23.021 34.713 29.974
H 24.331 33.642 29.313
C 23.162 32.739 30.954
H 22.324 32.034 31.033
H 23.088 33.545 31.708
C 24.39  31.943 31.326
H 25.289 32.584 31.445
C 24.762 30.915 30.224
H 25.183 31.297 29.296
H 25.612 30.389 30.645
H 23.917 30.255 30.102
C 24.212 31.145 32.579
H 23.87  30.149 32.404
H 25.11  31.018 33.134
H 23.571 31.585 33.315
