137

Mg 30.169 28.535 42.   
C 26.897 29.389 42.918
C 29.201 28.484 38.744
H 28.888 28.541 37.669
C 33.324 27.766 41.112
H 34.376 27.571 40.782
C 30.928 28.592 45.331
H 31.123 28.726 46.378
N 28.261 28.911 40.926
C 27.053 29.236 41.488
C 25.97  29.543 40.39 
H 25.123 28.889 40.658
C 26.67  29.011 39.087
H 26.693 29.754 38.314
C 28.143 28.76  39.601
C 26.041 27.779 38.348
H 26.79  27.304 37.718
H 25.671 27.021 39.018
H 25.192 28.031 37.796
C 25.539 31.011 40.276
H 26.269 31.612 39.803
H 25.394 31.363 41.273
C 24.231 31.016 39.498
H 23.961 30.025 39.258
H 23.468 31.342 40.154
C 24.142 31.785 38.274
O 23.694 32.906 38.16 
O 24.469 30.912 37.239
N 31.088 28.139 40.26 
C 30.522 28.14  38.966
C 31.531 28.026 37.903
C 32.764 27.888 38.622
C 32.446 27.997 40.081
C 31.298 28.02  36.387
H 32.012 27.499 35.756
H 30.315 27.827 35.98 
H 31.496 28.972 36.036
C 34.136 27.66  38.025
H 34.911 28.112 38.575
C 34.411 27.039 36.888
H 33.67  26.521 36.182
H 35.48  26.985 36.554
N 31.804 27.951 43.074
C 33.066 27.768 42.498
C 34.056 27.681 43.589
C 33.426 27.935 44.814
C 31.981 28.176 44.475
C 35.531 27.541 43.359
H 35.855 26.516 43.445
H 35.96  27.92  42.377
H 36.127 28.167 44.012
C 34.175 27.987 46.189
H 33.726 27.283 46.849
H 35.205 27.557 46.082
C 34.151 29.385 46.754
H 34.381 30.082 45.93 
H 33.116 29.477 47.127
H 34.859 29.529 47.552
N 29.154 28.84  43.803
C 29.616 28.915 45.121
C 28.563 29.157 46.045
C 27.428 29.426 45.224
C 27.864 29.249 43.916
C 28.726 29.033 47.507
H 29.308 28.144 47.769
H 29.171 29.96  47.769
H 27.671 28.901 47.874
C 25.983 29.725 45.167
O 25.116 30.014 46.02 
C 25.609 29.691 43.672
H 25.04  30.533 43.304
C 24.663 28.534 43.547
O 24.9   27.356 43.652
O 23.353 28.974 43.369
C 22.301 27.916 43.291
H 22.652 27.139 42.574
H 22.26  27.589 44.331
H 21.248 28.157 43.127
C 24.474 31.423 35.9  
H 25.262 32.118 35.625
H 23.577 32.016 35.639
C 24.634 30.127 35.175
H 25.531 29.554 35.335
C 23.692 29.635 34.297
C 22.354 30.207 33.835
H 22.351 31.317 33.897
H 22.321 29.94  32.699
H 21.55  29.842 34.495
C 24.079 28.286 33.777
H 25.194 28.303 33.64 
H 23.678 28.454 32.818
C 23.708 27.049 34.588
H 23.105 27.288 35.415
H 24.68  26.682 35.029
C 23.09  25.907 33.727
H 23.717 25.04  33.855
H 23.151 26.121 32.639
C 21.624 25.631 34.002
H 21.494 25.603 35.083
C 21.245 24.297 33.327
H 20.169 24.036 33.364
H 21.412 24.464 32.291
H 21.933 23.582 33.737
C 20.654 26.839 33.72 
H 21.029 27.761 34.222
H 19.807 26.619 34.361
C 20.205 27.241 32.289
H 20.704 26.577 31.577
H 20.548 28.269 32.166
C 18.694 27.212 32.09 
H 18.362 28.254 32.19 
H 18.2   26.699 32.94 
C 18.143 26.678 30.771
H 18.489 25.639 30.705
C 18.539 27.564 29.539
H 18.044 27.225 28.679
H 18.094 28.585 29.669
H 19.636 27.5   29.35 
C 16.609 26.592 30.983
H 16.206 27.647 30.866
H 16.461 26.175 31.975
C 15.842 25.662 30.034
H 15.881 24.681 30.49 
H 16.417 25.653 29.107
C 14.454 26.11  29.768
H 14.194 26.185 28.732
H 14.39  27.187 30.055
C 13.281 25.315 30.529
H 13.308 24.274 30.27 
C 11.896 25.771 30.041
H 11.73  25.613 28.924
H 11.318 25.05  30.63 
H 11.794 26.736 30.396
C 13.364 25.37  32.036
H 12.532 24.807 32.35 
H 14.277 24.968 32.486
H 13.334 26.382 32.428
