137

Mg 24.08  31.548 31.214
C 23.676 28.478 32.926
C 20.651 31.696 30.931
H 19.583 31.979 30.945
C 24.458 34.512 29.889
H 24.686 35.5   29.458
C 27.464 31.188 31.565
H 28.476 31.147 31.777
N 22.434 30.206 31.825
C 22.461 29.042 32.517
C 21.015 28.564 32.928
H 20.892 27.472 32.616
C 20.11  29.554 32.093
H 19.379 30.042 32.71 
C 21.11  30.55  31.505
C 19.203 28.789 31.034
H 18.449 29.53  30.751
H 19.774 28.439 30.184
H 18.626 27.957 31.439
C 20.836 28.817 34.437
H 21.121 29.837 34.617
H 21.5   28.22  35.079
C 19.418 28.535 34.975
H 18.799 28.082 34.202
H 19.593 27.773 35.742
C 18.732 29.725 35.733
O 18.735 29.959 36.931
O 17.966 30.407 34.786
N 22.811 32.97  30.646
C 21.413 32.802 30.508
C 20.841 33.948 29.848
C 21.966 34.718 29.424
C 23.131 34.11  29.987
C 19.341 34.103 29.577
H 19.    33.364 28.91 
H 18.825 34.198 30.557
H 19.316 35.128 29.069
C 22.159 35.943 28.562
H 22.905 36.743 28.864
C 21.458 36.166 27.4  
H 20.754 35.386 27.057
H 21.689 36.965 26.698
N 25.668 32.723 30.872
C 25.645 33.937 30.281
C 26.974 34.472 30.137
C 27.834 33.498 30.694
C 26.947 32.423 31.113
C 27.39  35.579 29.402
H 27.861 36.358 30.07 
H 28.048 35.172 28.682
H 26.539 35.974 28.883
C 29.351 33.508 30.662
H 29.776 32.561 30.244
H 29.716 34.44  30.221
C 29.887 33.464 32.109
H 29.768 32.511 32.671
H 30.945 33.624 31.961
H 29.473 34.263 32.761
N 25.323 30.044 31.816
C 26.679 30.146 32.033
C 27.163 29.02  32.758
C 26.02  28.323 33.21 
C 24.933 29.033 32.584
C 28.581 28.677 33.061
H 28.623 27.81  33.622
H 29.046 28.48  32.073
H 29.005 29.521 33.657
C 25.511 27.219 33.947
O 26.138 26.415 34.667
C 23.995 27.296 33.826
H 23.585 27.34  34.836
C 23.705 26.007 33.106
O 24.    25.667 31.979
O 22.676 25.393 33.768
C 22.178 24.234 33.067
H 23.004 23.65  32.676
H 21.671 23.489 33.767
H 21.597 24.588 32.226
C 17.154 31.468 35.433
H 17.748 32.308 35.855
H 16.531 30.987 36.177
C 16.411 32.002 34.25 
H 15.576 31.328 34.007
C 16.551 33.133 33.475
C 17.654 34.14  33.626
H 17.596 34.942 32.92 
H 17.635 34.628 34.581
H 18.619 33.782 33.385
C 15.628 33.468 32.349
H 15.18  32.545 32.012
H 16.173 33.899 31.507
C 14.416 34.364 32.635
H 14.5   34.83  33.621
H 13.578 33.712 32.62 
C 14.01  35.448 31.543
H 12.959 35.266 31.29 
H 14.629 35.301 30.673
C 13.945 36.948 31.745
H 13.413 37.113 32.633
C 13.132 37.691 30.589
H 13.238 38.77  30.726
H 13.381 37.406 29.527
H 12.077 37.504 30.909
C 15.396 37.468 31.991
H 15.887 36.774 32.7  
H 15.476 38.439 32.499
C 16.288 37.372 30.747
H 15.742 37.03  29.775
H 17.091 36.625 30.998
C 17.058 38.683 30.5  
H 17.943 38.597 31.139
H 16.357 39.395 30.84 
C 17.343 38.972 28.989
H 16.326 38.9   28.508
C 18.306 38.003 28.351
H 18.    36.951 28.596
H 18.247 38.129 27.255
H 19.28  38.167 28.757
C 17.865 40.437 28.879
H 18.341 40.674 27.89 
H 18.645 40.595 29.642
C 16.768 41.52  29.143
H 15.897 40.982 29.533
H 16.609 41.98  28.159
C 17.261 42.6   30.121
H 18.163 42.375 30.572
H 16.432 42.613 30.849
C 17.354 44.008 29.552
H 16.345 44.27  29.203
C 18.3   44.028 28.337
H 19.215 43.545 28.52 
H 17.732 43.583 27.472
H 18.503 45.055 28.028
C 17.79  45.113 30.569
H 17.777 46.003 29.955
H 17.043 45.238 31.351
H 18.674 44.766 31.123
