137

Mg 30.297 29.037 33.948
C 29.179 28.855 37.162
C 27.014 28.918 32.746
H 25.976 28.837 32.359
C 31.186 29.721 30.704
H 31.516 30.027 29.748
C 33.562 29.244 35.026
H 34.576 29.211 35.471
N 28.339 28.953 34.843
C 28.115 28.901 36.239
C 26.631 28.728 36.575
H 26.447 27.832 37.122
C 25.975 28.686 35.13 
H 25.389 29.573 34.863
C 27.185 28.841 34.151
C 24.994 27.485 34.894
H 24.866 27.275 33.825
H 25.44  26.557 35.235
H 23.951 27.653 35.292
C 26.104 29.903 37.523
H 26.287 30.918 37.126
H 26.667 29.829 38.552
C 24.575 29.812 37.881
H 24.262 28.785 37.658
H 24.422 29.927 38.974
C 23.573 30.7   37.221
O 23.685 31.895 37.056
O 22.596 29.911 36.839
N 29.308 29.235 31.993
C 27.984 29.169 31.782
C 27.701 29.429 30.376
C 28.853 29.585 29.68 
C 29.821 29.584 30.819
C 26.301 29.492 29.77 
H 25.692 30.296 30.128
H 26.313 29.442 28.681
H 25.733 28.667 30.137
C 29.187 29.979 28.292
H 28.505 30.694 27.779
C 30.17  29.356 27.531
H 30.956 28.656 27.95 
H 30.203 29.515 26.382
N 32.036 29.347 33.058
C 32.173 29.622 31.694
C 33.659 29.784 31.365
C 34.27  29.76  32.635
C 33.281 29.48  33.623
C 34.191 29.978 29.945
H 33.535 29.42  29.257
H 34.379 30.972 29.686
H 35.154 29.59  29.792
C 35.789 30.081 32.76 
H 36.311 29.264 33.308
H 36.168 30.102 31.755
C 36.116 31.313 33.532
H 37.144 31.713 33.694
H 35.637 32.122 32.941
H 35.579 31.275 34.5  
N 31.217 29.136 35.663
C 32.582 29.095 36.035
C 32.679 28.794 37.474
C 31.407 28.762 37.961
C 30.539 28.982 36.838
C 34.014 28.418 38.153
H 33.765 28.169 39.192
H 34.381 27.501 37.715
H 34.616 29.35  38.149
C 30.616 28.424 39.135
O 30.926 28.057 40.264
C 29.078 28.653 38.673
H 28.573 29.464 39.235
C 28.278 27.461 39.16 
O 28.031 26.464 38.493
O 27.78  27.743 40.417
C 26.756 26.757 40.792
H 25.93  26.706 40.005
H 27.135 25.782 40.94 
H 26.317 27.13  41.744
C 21.534 30.653 36.144
H 21.871 31.439 35.487
H 20.842 31.153 36.87 
C 20.753 29.64  35.386
H 19.999 29.146 35.962
C 21.028 29.069 34.225
C 22.074 29.492 33.292
H 22.821 30.191 33.766
H 22.747 28.63  33.05 
H 21.567 30.    32.457
C 20.204 27.884 33.744
H 19.942 27.376 34.663
H 20.917 27.208 33.217
C 18.937 28.275 32.92 
H 18.996 29.285 32.451
H 18.099 28.297 33.622
C 18.926 27.227 31.728
H 19.278 26.311 32.05 
H 19.674 27.599 30.934
C 17.571 26.919 31.146
H 17.048 26.539 31.965
C 17.578 25.666 30.125
H 16.599 25.297 29.856
H 18.143 25.984 29.263
H 18.131 24.778 30.577
C 16.866 28.261 30.681
H 16.974 29.053 31.492
H 15.83  27.966 30.536
C 17.512 29.069 29.497
H 17.882 28.362 28.759
H 18.383 29.615 29.837
C 16.521 30.114 28.963
H 15.866 30.166 29.85 
H 15.975 29.831 28.031
C 17.053 31.502 28.904
H 18.019 31.512 28.45 
C 17.13  32.212 30.265
H 16.192 32.425 30.709
H 17.602 31.551 31.02 
H 17.787 33.02  30.187
C 16.139 32.34  27.916
H 15.177 32.378 28.376
H 15.937 31.801 26.948
C 16.55  33.878 27.621
H 17.507 34.088 28.117
H 15.732 34.383 28.138
C 16.64  34.282 26.134
H 16.5   33.379 25.571
H 17.587 34.602 25.854
C 15.67  35.294 25.603
H 14.605 34.961 25.75 
C 15.856 35.403 24.045
H 15.68  34.421 23.616
H 15.251 36.164 23.604
H 16.873 35.665 23.788
C 15.789 36.66  26.299
H 15.668 37.586 25.74 
H 15.065 36.736 27.12 
H 16.746 36.737 26.828
