137

Mg 28.719 31.184 34.145
C 29.41  27.855 33.323
C 27.036 31.366 31.177
H 26.558 31.434 30.226
C 27.955 34.36  34.872
H 27.758 35.365 35.078
C 30.75  30.962 36.831
H 31.252 30.861 37.794
N 28.156 29.737 32.509
C 28.59  28.44  32.368
C 28.129 27.798 31.045
H 29.01  27.315 30.571
C 27.649 29.001 30.222
H 26.673 28.781 29.966
C 27.578 30.116 31.374
C 28.476 29.515 29.029
H 29.47  29.749 29.475
H 28.533 28.679 28.314
H 28.16  30.458 28.674
C 27.004 26.698 31.385
H 26.149 27.31  31.624
H 27.313 26.091 32.251
C 26.661 25.833 30.147
H 25.645 25.986 29.885
H 27.133 26.054 29.272
C 26.806 24.275 30.305
O 27.9   23.718 30.396
O 25.612 23.641 30.248
N 27.566 32.586 33.278
C 27.001 32.483 32.052
C 26.313 33.677 31.722
C 26.474 34.594 32.74 
C 27.343 33.892 33.727
C 25.338 33.842 30.474
H 25.786 34.013 29.583
H 24.777 32.949 30.262
H 24.724 34.631 30.722
C 25.883 35.926 33.04 
H 26.009 36.303 34.043
C 25.415 36.82  32.124
H 25.202 36.504 31.085
H 25.057 37.815 32.4  
N 29.346 32.47  35.584
C 28.897 33.739 35.705
C 29.51  34.354 36.84 
C 30.333 33.403 37.471
C 30.1   32.19  36.677
C 29.326 35.827 37.249
H 29.986 36.55  36.741
H 28.33  36.149 36.948
H 29.367 35.934 38.343
C 31.28  33.46  38.651
H 32.195 32.976 38.286
H 31.491 34.497 38.983
C 30.795 32.614 39.834
H 31.2   33.027 40.796
H 29.714 32.812 39.902
H 31.092 31.531 39.761
N 29.896 29.76  34.907
C 30.623 29.77  36.044
C 31.238 28.529 36.196
C 30.825 27.706 35.16 
C 29.963 28.503 34.393
C 32.146 28.13  37.399
H 33.071 28.666 37.274
H 31.683 28.428 38.328
H 32.191 26.991 37.318
C 30.912 26.429 34.609
O 31.332 25.362 34.987
C 29.931 26.42  33.382
H 29.036 25.776 33.472
C 30.778 26.145 32.156
O 31.695 26.86  31.785
O 30.357 25.038 31.505
C 31.018 24.624 30.245
H 30.665 23.634 29.98 
H 30.732 25.403 29.499
H 32.16  24.658 30.379
C 25.65  22.175 30.15 
H 26.345 21.761 30.906
H 26.026 21.817 29.161
C 24.228 21.651 30.173
H 23.521 22.232 29.683
C 23.729 20.521 30.7  
C 24.644 19.414 31.371
H 24.203 19.181 32.389
H 24.656 18.564 30.704
H 25.676 19.813 31.415
C 22.27  20.131 30.752
H 21.737 21.063 30.535
H 21.899 19.922 31.751
C 21.853 19.085 29.634
H 22.724 18.642 29.231
H 21.357 19.643 28.89 
C 20.859 18.035 30.117
H 19.902 18.238 29.497
H 20.641 18.213 31.185
C 21.326 16.469 30.029
H 21.953 16.309 29.238
C 20.092 15.734 29.482
H 20.294 14.735 29.376
H 19.221 15.872 30.181
H 19.783 16.148 28.596
C 22.019 15.874 31.336
H 22.864 16.581 31.619
H 22.498 14.878 31.098
C 21.186 15.638 32.601
H 20.702 14.684 32.602
H 20.415 16.364 32.396
C 22.014 15.962 33.883
H 21.696 16.984 34.082
H 23.077 15.94  33.698
C 21.621 15.005 35.091
H 20.592 14.715 35.158
C 21.85  15.771 36.442
H 21.328 15.15  37.23 
H 22.881 15.802 36.773
H 21.429 16.69  36.577
C 22.521 13.742 35.141
H 22.523 13.2   36.062
H 23.638 14.092 34.994
C 22.397 12.821 33.883
H 22.807 13.44  33.042
H 21.332 12.713 33.744
C 23.186 11.536 34.085
H 22.549 10.676 33.782
H 23.556 11.413 35.109
C 24.368 11.396 33.098
H 25.048 12.262 33.255
C 23.913 11.4   31.577
H 24.799 11.348 31.016
H 23.21  10.612 31.462
H 23.351 12.306 31.289
C 25.275 10.253 33.459
H 26.013 10.225 32.647
H 25.684 10.394 34.523
H 24.735  9.302 33.576
