137

Mg 24.019 32.038 37.06 
C 22.541 29.559 38.972
C 20.971 32.533 35.465
H 19.991 32.675 34.994
C 25.505 34.126 34.887
H 26.005 34.892 34.345
C 26.9   31.647 38.82 
H 27.761 31.566 39.492
N 22.001 31.197 37.231
C 21.617 30.189 38.092
C 20.103 29.844 37.88 
H 19.888 28.766 37.635
C 19.629 30.816 36.726
H 18.937 31.594 37.136
C 20.941 31.55  36.438
C 19.064 30.085 35.521
H 19.08  30.63  34.567
H 19.476 29.055 35.306
H 18.007 30.011 35.706
C 19.399 29.958 39.192
H 19.44  31.006 39.524
H 19.88  29.449 39.985
C 17.864 29.568 39.225
H 17.604 29.176 38.22 
H 17.672 28.762 39.958
C 16.934 30.714 39.676
O 16.209 30.702 40.664
O 16.963 31.779 38.736
N 23.292 33.285 35.546
C 22.06  33.338 35.043
C 21.947 34.401 34.024
C 23.274 34.758 33.733
C 24.088 34.052 34.748
C 20.704 34.877 33.52 
H 19.915 34.733 34.215
H 20.831 35.961 33.373
H 20.362 34.33  32.627
C 23.801 35.845 32.918
H 24.715 36.369 33.158
C 23.134 36.379 31.886
H 22.142 36.058 31.488
H 23.572 37.252 31.294
N 25.884 32.732 36.889
C 26.332 33.625 35.919
C 27.734 33.944 36.169
C 28.086 33.233 37.347
C 26.951 32.531 37.728
C 28.483 34.941 35.36 
H 27.813 35.847 35.447
H 29.564 35.174 35.689
H 28.431 34.846 34.326
C 29.376 33.373 38.111
H 29.543 32.396 38.543
H 30.198 33.758 37.525
C 29.191 34.235 39.341
H 30.161 34.106 39.869
H 28.995 35.292 38.97 
H 28.384 33.874 40.013
N 24.649 30.893 38.497
C 25.821 30.815 39.164
C 25.861 29.671 40.145
C 24.571 29.17  40.146
C 23.863 29.947 39.104
C 26.998 29.133 40.979
H 26.972 29.638 41.928
H 26.819 28.006 41.219
H 27.947 29.312 40.421
C 23.686 28.182 40.672
O 23.88  27.294 41.444
C 22.371 28.336 39.943
H 21.627 28.565 40.648
C 22.134 27.044 39.259
O 22.552 26.695 38.154
O 21.186 26.32  39.923
C 20.599 25.247 39.179
H 19.885 24.835 39.874
H 20.061 25.438 38.239
H 21.36  24.479 38.992
C 16.115 32.924 39.106
H 16.725 33.666 39.738
H 15.227 32.709 39.629
C 15.658 33.564 37.785
H 14.731 33.175 37.331
C 16.395 34.368 37.004
C 17.82  34.822 37.315
H 18.078 34.785 38.353
H 18.473 34.055 36.865
H 17.959 35.812 36.941
C 15.816 34.753 35.619
H 15.12  33.943 35.332
H 16.634 34.775 34.879
C 15.027 36.105 35.642
H 15.439 36.844 36.323
H 14.139 35.726 36.104
C 14.824 36.662 34.202
H 13.725 36.706 33.975
H 15.148 35.886 33.45 
C 15.532 37.968 33.929
H 15.146 38.672 34.651
C 14.949 38.5   32.557
H 15.19  37.916 31.594
H 13.85  38.515 32.68 
H 15.285 39.496 32.292
C 17.106 37.836 33.929
H 17.353 37.475 34.875
H 17.49  38.854 33.847
C 17.696 36.906 32.806
H 17.023 36.379 32.197
H 18.296 36.12  33.319
C 18.562 37.852 31.87 
H 19.637 37.788 32.32 
H 18.196 38.877 31.769
C 18.794 37.433 30.374
H 17.816 37.327 29.964
C 19.387 35.992 30.195
H 19.248 35.567 29.178
H 20.469 35.998 30.28 
H 18.867 35.27  30.932
C 19.559 38.451 29.492
H 19.57  37.947 28.482
H 20.645 38.511 29.718
C 18.853 39.866 29.213
H 17.841 39.854 29.592
H 18.697 40.026 28.132
C 19.629 40.993 29.894
H 19.971 41.668 29.079
H 20.553 40.586 30.304
C 18.89  41.812 30.986
H 18.498 41.082 31.735
C 17.684 42.644 30.318
H 17.115 43.339 30.946
H 18.    43.173 29.446
H 17.08  41.935 29.822
C 19.912 42.665 31.764
H 19.48  43.279 32.571
H 20.584 42.015 32.263
H 20.461 43.291 31.113
