137

Mg 36.327 34.168 35.728
C 33.701 32.127 34.777
C 37.972 33.092 33.068
H 38.577 32.744 32.311
C 38.94  36.004 36.81 
H 39.8   36.639 37.059
C 34.619 34.821 38.681
H 34.098 35.07  39.632
N 35.864 32.762 34.116
C 34.681 32.054 33.872
C 34.757 31.375 32.502
H 34.5   30.354 32.636
C 36.214 31.526 32.142
H 36.166 32.182 31.257
C 36.749 32.46  33.202
C 36.959 30.251 31.86 
H 37.851 30.46  31.472
H 37.053 29.607 32.732
H 36.427 29.684 31.035
C 33.741 31.898 31.527
H 33.864 32.969 31.511
H 32.711 31.697 31.915
C 33.674 31.329 30.079
H 33.889 32.089 29.335
H 34.382 30.536 30.012
C 32.296 30.764 29.574
O 31.784 29.647 29.702
O 31.648 31.768 28.866
N 38.177 34.446 35.052
C 38.644 33.988 33.865
C 39.927 34.48  33.642
C 40.284 35.289 34.739
C 39.1   35.303 35.636
C 40.696 34.276 32.297
H 41.116 35.212 31.903
H 41.528 33.635 32.546
H 40.121 33.808 31.524
C 41.549 35.922 35.062
H 41.548 36.675 35.868
C 42.705 35.592 34.457
H 42.851 34.89  33.632
H 43.665 36.131 34.832
N 36.815 35.201 37.469
C 37.908 35.912 37.723
C 37.849 36.362 39.141
C 36.654 36.051 39.648
C 35.944 35.335 38.575
C 38.989 37.094 39.761
H 39.205 36.54  40.664
H 39.942 37.052 39.21 
H 38.662 38.095 39.937
C 36.184 36.41  41.061
H 35.652 35.54  41.495
H 37.01  36.655 41.688
C 35.249 37.617 40.874
H 34.979 38.064 41.828
H 35.812 38.389 40.388
H 34.363 37.233 40.306
N 34.458 33.815 36.508
C 33.897 34.105 37.691
C 32.587 33.528 37.844
C 32.49  32.729 36.652
C 33.626 32.93  35.891
C 31.528 33.795 38.867
H 31.469 32.981 39.548
H 31.868 34.737 39.288
H 30.534 33.832 38.375
C 31.608 31.835 35.971
O 30.486 31.473 36.249
C 32.304 31.568 34.692
H 31.659 32.21  33.959
C 32.239 30.083 34.461
O 32.716 29.21  35.176
O 31.43  29.814 33.344
C 31.298 28.364 33.068
H 30.638 28.108 32.296
H 32.291 27.997 32.759
H 30.937 27.888 34.029
C 30.241 31.543 28.597
H 29.781 31.323 29.485
H 30.133 30.753 27.847
C 29.487 32.728 28.033
H 29.879 33.047 27.041
C 28.374 33.3   28.435
C 27.672 33.214 29.764
H 27.326 34.153 30.084
H 26.722 32.672 29.731
H 28.295 32.67  30.502
C 27.748 34.317 27.439
H 28.484 34.654 26.729
H 27.432 35.186 27.971
C 26.594 33.845 26.493
H 26.619 32.777 26.546
H 26.799 34.134 25.486
C 25.205 34.43  27.017
H 24.754 35.16  26.341
H 25.185 34.962 27.931
C 24.158 33.287 27.228
H 24.672 32.582 27.859
C 23.717 32.547 25.96 
H 23.229 33.152 25.203
H 24.678 32.346 25.475
H 23.322 31.595 26.317
C 22.927 33.705 28.034
H 22.259 34.196 27.335
H 23.253 34.397 28.772
C 22.18  32.6   28.771
H 22.915 31.953 29.278
H 21.599 32.022 28.132
C 21.159 33.187 29.759
H 21.14  34.232 29.67 
H 21.504 32.938 30.718
C 19.655 32.648 29.741
H 19.802 31.646 30.012
C 18.886 32.872 28.381
H 17.975 32.307 28.334
H 18.673 33.955 28.244
H 19.474 32.458 27.563
C 18.919 33.327 31.016
H 18.974 34.373 30.818
H 19.583 33.27  31.855
C 17.485 32.933 31.306
H 17.48  32.43  32.291
H 17.084 32.22  30.637
C 16.426 34.124 31.075
H 15.629 33.811 30.377
H 16.901 34.869 30.438
C 15.85  34.761 32.307
H 16.684 35.113 32.763
C 14.952 33.862 33.22 
H 14.68  34.368 34.133
H 14.127 33.727 32.56 
H 15.428 32.937 33.335
C 15.09  36.081 31.982
H 14.901 36.694 32.929
H 15.618 36.756 31.327
H 14.117 35.792 31.616
