137

Mg 21.834 17.632 25.532
C 24.474 17.098 23.365
C 23.78  20.088 26.941
H 24.436 20.763 27.443
C 19.383 18.241 27.729
H 18.709 18.448 28.474
C 20.206 14.947 24.247
H 19.728 13.981 23.953
N 23.87  18.49  25.146
C 24.752 18.115 24.195
C 26.027 18.937 24.178
H 26.86  18.31  24.147
C 25.911 19.568 25.555
H 26.195 20.608 25.422
C 24.409 19.431 25.93 
C 26.945 19.005 26.517
H 27.08  17.974 26.507
H 27.85  19.467 26.289
H 26.606 19.391 27.518
C 25.973 19.968 23.059
H 24.991 20.526 23.132
H 26.002 19.376 22.102
C 27.248 20.899 22.881
H 28.123 20.453 23.425
H 27.381 20.787 21.799
C 27.241 22.365 23.184
O 28.139 22.897 23.789
O 26.128 23.027 22.725
N 21.663 18.933 27.029
C 22.527 19.885 27.466
C 21.966 20.653 28.487
C 20.665 20.217 28.69 
C 20.476 19.058 27.812
C 22.753 21.802 29.131
H 22.228 22.234 29.956
H 23.692 21.548 29.548
H 22.882 22.538 28.373
C 19.632 20.772 29.641
H 18.833 20.07  29.948
C 19.663 22.035 30.141
H 20.273 22.871 29.733
H 18.869 22.339 30.863
N 20.051 16.757 25.914
C 19.15  17.154 26.916
C 18.09  16.133 26.984
C 18.328 15.199 25.938
C 19.57  15.64  25.259
C 16.887 16.276 27.958
H 16.315 17.044 27.562
H 16.263 15.357 27.968
H 17.227 16.55  28.98 
C 17.424 14.038 25.529
H 18.017 13.201 25.11 
H 16.988 13.568 26.433
C 16.469 14.502 24.4  
H 16.993 14.772 23.442
H 15.703 13.726 24.236
H 16.06  15.505 24.683
N 22.145 16.329 24.063
C 21.394 15.257 23.642
C 22.054 14.643 22.465
C 23.3   15.321 22.372
C 23.293 16.345 23.335
C 21.558 13.499 21.698
H 22.234 12.699 21.958
H 20.574 13.213 21.718
H 21.686 13.517 20.596
C 24.549 15.421 21.668
O 24.993 14.841 20.631
C 25.444 16.442 22.361
H 25.702 17.012 21.486
C 26.541 15.712 22.998
O 26.313 15.043 24.029
O 27.795 15.764 22.42 
C 28.877 15.068 23.13 
H 28.673 13.991 23.192
H 29.662 15.161 22.424
H 28.879 15.389 24.227
C 26.243 24.492 22.979
H 26.655 24.943 22.099
H 26.925 24.837 23.886
C 24.852 24.859 23.367
H 24.229 25.07  22.414
C 24.272 24.879 24.598
C 25.035 24.535 25.848
H 24.898 25.322 26.554
H 24.694 23.545 26.277
H 26.144 24.409 25.738
C 22.804 25.349 24.72 
H 22.371 24.579 25.311
H 22.426 25.351 23.686
C 22.512 26.627 25.492
H 23.472 27.156 25.554
H 22.144 26.35  26.457
C 21.399 27.446 24.913
H 20.483 27.109 25.404
H 21.318 27.24  23.863
C 21.452 28.974 25.054
H 22.234 29.446 24.455
C 21.873 29.434 26.427
H 21.675 30.492 26.488
H 21.181 29.029 27.084
H 22.947 29.27  26.665
C 20.019 29.548 24.625
H 19.932 30.49  25.169
H 19.202 28.943 24.988
C 19.759 29.606 23.078
H 18.888 29.032 22.966
H 20.595 29.048 22.699
C 19.72  30.941 22.339
H 20.394 30.858 21.483
H 20.291 31.62  22.965
C 18.338 31.553 21.887
H 17.773 30.892 21.281
C 18.68  32.77  21.111
H 17.817 33.301 20.818
H 19.375 33.438 21.665
H 19.074 32.54  20.14 
C 17.472 31.892 23.088
H 18.034 32.729 23.502
H 17.513 31.034 23.765
C 15.97  32.462 22.832
H 15.244 31.881 23.338
H 15.878 32.251 21.776
C 15.711 33.989 22.948
H 15.613 34.312 21.979
H 16.56  34.551 23.408
C 14.426 34.282 23.752
H 13.638 33.521 23.598
C 13.711 35.52  23.252
H 13.741 35.711 22.132
H 12.645 35.634 23.505
H 14.398 36.374 23.569
C 14.69  34.373 25.224
H 13.856 34.471 25.876
H 15.284 33.507 25.581
H 15.268 35.253 25.419
