137

Mg 19.078 23.25  29.788
C 21.773 23.747 31.873
C 17.654 26.117 31.137
H 17.176 27.016 31.48 
C 16.239 22.714 27.916
H 15.285 22.552 27.292
C 20.294 20.144 28.988
H 20.707 19.184 28.716
N 19.602 24.711 31.361
C 20.837 24.78  31.956
C 20.988 25.994 32.917
H 21.061 25.673 33.96 
C 19.563 26.699 32.685
H 19.666 27.696 32.267
C 18.901 25.737 31.689
C 18.792 27.006 34.003
H 17.763 27.319 33.892
H 18.81  26.155 34.694
H 19.352 27.79  34.51 
C 22.319 26.803 32.55 
H 22.113 27.115 31.563
H 23.256 26.224 32.46 
C 22.515 27.954 33.611
H 21.658 28.133 34.29 
H 23.369 27.683 34.258
C 22.802 29.273 33.011
O 23.86  29.597 32.545
O 21.647 30.052 32.901
N 17.261 24.219 29.54 
C 16.851 25.362 30.209
C 15.561 25.846 29.723
C 15.169 24.931 28.736
C 16.235 23.859 28.725
C 14.774 27.122 30.14 
H 13.758 26.957 29.839
H 14.778 27.112 31.209
H 15.201 27.955 29.561
C 13.888 24.824 27.995
H 12.92  24.981 28.508
C 13.873 24.787 26.664
H 14.731 24.771 25.975
H 12.926 24.745 26.186
N 18.384 21.729 28.681
C 17.223 21.693 28.038
C 17.057 20.449 27.31 
C 18.277 19.684 27.534
C 19.038 20.533 28.398
C 15.811 19.985 26.601
H 15.764 20.498 25.681
H 15.809 18.932 26.536
H 14.954 20.259 27.215
C 18.64  18.263 27.11 
H 19.062 17.701 27.984
H 17.766 17.707 26.747
C 19.742 18.379 26.095
H 20.566 18.977 26.486
H 20.183 17.39  25.814
H 19.251 18.788 25.204
N 20.725 22.1   30.277
C 21.071 20.904 29.867
C 22.361 20.552 30.437
C 22.668 21.615 31.291
C 21.632 22.576 31.134
C 23.151 19.282 30.321
H 22.946 18.72  29.451
H 24.17  19.5   30.159
H 22.995 18.637 31.194
C 23.527 22.024 32.274
O 24.461 21.563 32.8  
C 23.045 23.439 32.706
H 23.838 24.172 32.502
C 22.75  23.451 34.135
O 21.82  22.845 34.604
O 23.765 24.181 34.777
C 23.655 23.946 36.181
H 23.694 22.872 36.386
H 24.41  24.457 36.753
H 22.739 24.304 36.582
C 21.863 31.183 32.061
H 22.015 30.723 31.107
H 22.649 31.866 32.406
C 20.486 31.9   32.103
H 19.588 31.296 31.922
C 20.163 33.192 32.526
C 21.152 34.252 33.06 
H 21.049 35.156 32.42 
H 20.953 34.514 34.118
H 22.159 33.852 33.021
C 18.673 33.569 32.624
H 18.055 32.979 31.926
H 18.622 34.631 32.264
C 18.172 33.569 34.065
H 18.854 33.053 34.826
H 17.268 32.937 33.924
C 17.773 34.982 34.536
H 16.796 35.222 34.073
H 18.395 35.833 34.142
C 17.867 35.165 36.062
H 18.882 34.801 36.324
C 16.871 34.234 36.811
H 15.864 34.504 36.632
H 17.073 33.184 36.644
H 16.976 34.415 37.862
C 17.631 36.644 36.491
H 17.398 36.551 37.542
H 16.769 37.042 35.998
C 18.824 37.57  36.198
H 19.695 37.026 35.968
H 19.053 37.969 37.138
C 18.502 38.822 35.337
H 18.626 39.763 35.913
H 17.528 38.798 34.937
C 19.328 38.94  34.098
H 19.089 38.002 33.501
C 20.824 39.067 34.388
H 21.419 39.029 33.453
H 20.984 39.983 34.996
H 21.239 38.271 34.975
C 18.827 40.11  33.188
H 18.771 41.056 33.778
H 17.839 39.907 32.827
C 19.457 40.462 31.882
H 20.33  41.139 31.92 
H 18.731 41.089 31.313
C 19.628 39.189 30.98 
H 18.932 39.122 30.171
H 19.41  38.395 31.568
C 21.031 39.037 30.273
H 21.695 39.151 31.138
C 21.35  40.158 29.228
H 22.446 40.081 29.145
H 20.909 39.822 28.22 
H 21.027 41.122 29.665
C 21.374 37.642 29.658
H 20.467 37.366 29.035
H 22.321 37.708 29.149
H 21.404 36.808 30.382
