137

Mg 19.517 25.407 28.678
C 22.777 24.49  29.156
C 20.094 28.298 30.622
H 20.234 29.121 31.282
C 16.263 26.209 28.476
H 15.228 26.491 28.478
C 19.124 22.659 26.732
H 18.895 21.931 26.029
N 21.202 26.257 29.691
C 22.482 25.708 29.758
C 23.431 26.667 30.527
H 23.967 26.048 31.273
C 22.466 27.682 31.228
H 22.755 28.736 30.926
C 21.166 27.423 30.379
C 22.199 27.436 32.689
H 21.227 27.864 32.963
H 22.105 26.423 32.829
H 22.954 27.878 33.297
C 24.492 27.381 29.663
H 24.124 27.96  28.871
H 25.119 26.627 29.15 
C 25.603 28.177 30.419
H 25.347 28.288 31.515
H 26.466 27.584 30.3  
C 25.974 29.585 29.99 
O 26.897 29.831 29.164
O 25.316 30.489 30.745
N 18.393 27.084 29.285
C 18.831 28.11  30.136
C 17.724 29.001 30.338
C 16.634 28.429 29.684
C 17.054 27.161 29.143
C 17.783 30.325 31.006
H 17.925 30.08  32.037
H 18.702 30.846 30.721
H 16.897 30.888 30.85 
C 15.287 28.989 29.647
H 14.897 29.322 30.552
C 14.461 29.035 28.564
H 14.837 28.669 27.604
H 13.401 29.345 28.648
N 17.875 24.603 27.754
C 16.635 25.041 27.818
C 15.792 24.228 26.959
C 16.682 23.29  26.354
C 17.987 23.478 26.98 
C 14.378 24.44  26.576
H 13.881 23.525 26.486
H 13.914 25.078 27.295
H 14.321 24.873 25.552
C 16.369 22.414 25.085
H 16.638 21.365 25.306
H 15.324 22.496 24.742
C 17.17  22.852 23.841
H 16.975 23.9   23.634
H 18.24  22.744 24.061
H 16.871 22.228 22.988
N 20.57  23.816 28.164
C 20.263 22.69  27.367
C 21.45  21.935 27.06 
C 22.41  22.561 27.863
C 21.869 23.701 28.433
C 21.608 20.732 26.198
H 20.701 20.065 26.178
H 21.723 20.971 25.207
H 22.483 20.097 26.504
C 23.758 22.481 28.276
O 24.522 21.555 28.185
C 24.064 23.744 29.018
H 24.694 24.377 28.43 
C 24.698 23.317 30.331
O 24.189 22.856 31.358
O 26.068 23.643 30.205
C 26.729 23.485 31.468
H 26.207 24.093 32.152
H 26.769 22.421 31.658
H 27.671 24.002 31.335
C 25.871 31.817 30.742
H 26.962 31.893 30.545
H 25.731 32.243 31.717
C 25.164 32.747 29.727
H 24.851 32.185 28.875
C 24.927 34.076 29.89 
C 25.354 34.866 31.141
H 26.157 35.55  30.844
H 24.548 35.556 31.522
H 25.585 34.243 31.986
C 24.149 34.875 28.873
H 24.221 34.347 27.905
H 24.698 35.792 28.608
C 22.665 35.183 29.266
H 22.422 34.9   30.264
H 21.944 34.669 28.559
C 22.253 36.633 29.135
H 21.948 36.824 28.073
H 23.045 37.373 29.172
C 21.153 37.156 30.117
H 21.442 36.831 31.067
C 19.754 36.487 29.808
H 19.496 36.549 28.7  
H 19.824 35.46  30.046
H 19.02  37.024 30.388
C 21.038 38.729 30.208
H 20.176 39.085 30.833
H 20.813 39.1   29.193
C 22.249 39.457 30.891
H 23.19  38.851 30.753
H 21.956 39.48  31.912
C 22.399 40.909 30.481
H 22.539 41.474 31.355
H 21.431 41.213 30.066
C 23.6   41.305 29.527
H 24.521 40.974 30.033
C 23.675 42.892 29.431
H 22.657 43.181 29.081
H 23.823 43.25  30.45 
H 24.435 43.175 28.711
C 23.357 40.644 28.081
H 22.618 41.272 27.557
H 23.197 39.641 28.219
C 24.679 40.756 27.221
H 25.04  39.709 27.097
H 25.487 41.314 27.783
C 24.399 41.415 25.815
H 24.25  42.509 25.834
H 23.423 41.047 25.533
C 25.483 41.141 24.698
H 25.907 40.147 24.908
C 26.594 42.188 24.764
H 27.13  42.002 25.705
H 27.232 42.134 23.944
H 26.088 43.169 24.853
C 24.842 41.115 23.268
H 24.521 42.161 23.01 
H 25.602 40.687 22.666
H 24.036 40.391 23.244
