137

Mg 21.086 17.333 26.931
C 22.232 17.356 23.689
C 23.778 19.24  27.857
H 24.679 19.69  28.23 
C 20.224 16.867 30.077
H 19.893 16.733 31.165
C 18.615 15.199 25.83 
H 17.849 14.533 25.421
N 22.778 18.272 25.86 
C 23.089 18.126 24.509
C 24.265 19.028 24.057
H 24.994 18.53  23.574
C 24.801 19.395 25.472
H 25.081 20.416 25.676
C 23.658 19.044 26.472
C 26.078 18.507 25.822
H 26.39  18.619 26.845
H 25.844 17.486 25.618
H 26.921 18.835 25.173
C 23.801 20.162 23.296
H 23.286 20.729 24.108
H 22.958 19.944 22.61 
C 24.924 20.998 22.742
H 25.887 20.435 22.902
H 24.693 21.127 21.705
C 25.161 22.474 23.252
O 26.277 22.903 23.594
O 23.974 23.138 23.31 
N 21.702 18.088 28.672
C 22.85 18.89 28.87
C 22.96  19.265 30.253
C 21.936 18.623 30.967
C 21.226 17.835 29.95 
C 23.853 20.365 30.726
H 24.455 20.794 29.952
H 23.074 21.001 31.065
H 24.538 20.119 31.535
C 21.644 18.582 32.463
H 20.558 18.498 32.652
C 22.499 18.798 33.479
H 23.568 18.987 33.33 
H 22.115 18.917 34.493
N 19.675 16.111 27.852
C 19.461 16.128 29.167
C 18.262 15.321 29.478
C 17.788 14.838 28.26 
C 18.707 15.359 27.229
C 17.6   15.306 30.869
H 17.725 16.293 31.363
H 16.519 15.251 30.698
H 18.006 14.473 31.537
C 16.564 13.993 27.996
H 16.795 13.342 27.155
H 16.406 13.433 28.875
C 15.4   14.956 27.725
H 14.445 14.526 27.424
H 15.181 15.751 28.413
H 15.772 15.54  26.895
N 20.45  16.473 25.191
C 19.492 15.561 24.834
C 19.476 15.195 23.437
C 20.561 15.92  23.032
C 21.103 16.688 24.08 
C 18.674 14.248 22.697
H 19.129 13.868 21.756
H 18.384 13.434 23.402
H 17.708 14.584 22.263
C 21.339 16.114 21.819
O 21.22  15.614 20.723
C 22.389 17.09  22.189
H 22.061 17.942 21.581
C 23.639 16.565 21.722
O 24.313 15.635 22.24 
O 24.078 17.386 20.691
C 25.37  16.997 20.082
H 25.51  17.743 19.273
H 26.141 17.127 20.843
H 25.31  15.899 19.668
C 24.033 24.508 23.888
H 24.705 25.139 23.286
H 24.377 24.511 24.916
C 22.597 24.953 23.891
H 21.997 24.658 24.769
C 21.913 25.75  23.028
C 22.548 26.396 21.821
H 22.297 27.419 22.031
H 23.614 26.318 21.911
H 22.068 26.14  20.848
C 20.476 26.111 23.403
H 20.03  25.301 23.931
H 19.998 26.065 22.47 
C 20.163 27.495 23.929
H 19.409 27.927 23.303
H 21.07  28.073 23.917
C 19.569 27.569 25.337
H 19.692 26.616 25.899
H 18.491 27.684 25.219
C 20.019 28.803 26.215
H 20.072 29.713 25.603
C 21.548 28.669 26.548
H 21.817 29.488 27.21 
H 21.737 27.771 27.048
H 22.204 28.696 25.686
C 19.171 29.089 27.513
H 19.763 29.805 28.084
H 19.095 28.297 28.262
C 17.792 29.592 27.127
H 17.019 29.06  27.733
H 17.621 29.513 26.029
C 17.48  31.099 27.437
H 16.993 31.625 26.585
H 18.39  31.565 27.826
C 16.421 31.228 28.619
H 15.625 30.552 28.323
C 16.024 32.726 28.666
H 15.049 32.783 29.113
H 16.781 33.233 29.252
H 15.769 33.182 27.75 
C 17.053 30.653 29.886
H 17.932 31.302 30.031
H 17.408 29.631 29.806
C 16.265 30.542 31.218
H 16.408 29.508 31.654
H 15.203 30.76  30.977
C 16.585 31.622 32.295
H 15.69  32.071 32.689
H 17.238 32.488 31.943
C 17.198 31.02  33.534
H 16.521 30.275 33.972
C 17.329 32.107 34.604
H 16.367 32.56  34.928
H 17.623 31.588 35.437
H 18.052 32.868 34.309
C 18.608 30.384 33.26 
H 18.637 29.768 32.392
H 19.346 31.121 33.043
H 18.821 29.8   34.074
