137

Mg 30.104 28.689 32.694
C 27.688 26.43  31.978
C 31.383 27.986 29.515
H 31.984 27.789 28.656
C 32.717 30.637 33.316
H 33.544 31.4   33.463
C 28.902 28.949 35.925
H 28.489 28.976 36.958
N 29.499 27.501 30.928
C 28.471 26.592 30.89 
C 28.343 25.927 29.495
H 28.341 24.835 29.592
C 29.702 26.402 28.796
H 29.447 26.878 27.82 
C 30.218 27.38  29.782
C 30.657 25.264 28.376
H 31.177 24.9   29.262
H 30.193 24.403 27.802
H 31.398 25.74  27.738
C 27.037 26.292 28.63 
H 27.1   27.324 28.235
H 26.204 26.206 29.311
C 26.819 25.442 27.388
H 27.374 25.812 26.513
H 27.068 24.406 27.646
C 25.409 25.14  26.958
O 25.014 25.188 25.806
O 24.605 24.756 27.988
N 31.844 29.24  31.589
C 32.17  28.932 30.291
C 33.457 29.535 29.898
C 33.832 30.213 31.06 
C 32.786 30.054 32.026
C 34.064 29.602 28.454
H 34.912 30.236 28.506
H 34.32  28.613 28.115
H 33.348 30.141 27.792
C 34.97  31.046 31.336
H 34.846 31.901 31.951
C 36.249 30.802 30.935
H 36.422 29.886 30.308
H 37.093 31.553 30.801
N 30.704 29.611 34.341
C 31.748 30.502 34.319
C 31.818 31.028 35.653
C 30.811 30.46  36.434
C 30.042 29.656 35.557
C 32.926 31.975 36.062
H 32.51  32.957 35.683
H 33.193 31.956 37.131
H 33.82  31.77  35.565
C 30.581 30.714 37.9  
H 30.296 29.779 38.451
H 31.468 31.108 38.386
C 29.521 31.765 38.118
H 29.531 32.152 39.094
H 29.658 32.655 37.55 
H 28.553 31.358 37.884
N 28.526 27.962 33.734
C 28.172 28.121 35.062
C 26.94  27.315 35.264
C 26.649 26.666 34.104
C 27.744 27.014 33.204
C 26.137 27.156 36.509
H 26.893 27.049 37.296
H 25.371 28.024 36.626
H 25.58  26.205 36.464
C 25.801 25.755 33.342
O 24.891 25.049 33.738
C 26.485 25.585 31.94 
H 25.693 25.921 31.224
C 26.888 24.187 31.758
O 27.742 23.61  32.419
O 26.125 23.585 30.761
C 26.632 22.305 30.337
H 25.987 21.95  29.453
H 27.599 22.258 29.888
H 26.428 21.579 31.096
C 23.204 24.542 27.714
H 23.083 23.744 26.94 
H 22.732 25.489 27.343
C 22.581 24.036 29.004
H 22.262 24.83  29.742
C 22.503 22.733 29.392
C 23.099 21.564 28.58 
H 24.083 21.925 28.31 
H 23.286 20.709 29.231
H 22.432 21.334 27.775
C 21.702 22.503 30.611
H 21.726 23.355 31.282
H 22.152 21.7   31.215
C 20.28  21.938 30.436
H 19.862 21.762 31.373
H 20.326 20.962 30.025
C 19.481 22.95  29.595
H 19.981 23.853 29.432
H 18.65  23.213 30.271
C 18.977 22.549 28.189
H 19.75  22.448 27.44 
C 18.207 23.751 27.593
H 17.401 24.015 28.284
H 18.87  24.663 27.526
H 17.712 23.601 26.597
C 18.111 21.268 28.191
H 18.884 20.54  28.481
H 17.819 20.989 27.206
C 16.826 21.17  29.016
H 16.071 20.646 28.389
H 16.356 22.12  29.181
C 16.884 20.386 30.334
H 17.89  20.065 30.536
H 16.29  19.499 30.028
C 16.231 21.012 31.605
H 16.889 21.853 31.888
C 16.522 20.03  32.748
H 16.003 20.245 33.628
H 16.225 19.084 32.403
H 17.547 20.    32.97 
C 14.724 21.338 31.352
H 14.349 20.347 31.116
H 14.477 21.897 30.408
C 14.084 22.17  32.54 
H 13.547 23.012 32.106
H 14.762 22.61  33.248
C 12.948 21.426 33.291
H 12.877 21.557 34.41 
H 13.159 20.307 33.13 
C 11.538 21.688 32.699
H 11.291 22.791 32.66 
C 10.487 21.096 33.72 
H 10.786 20.14  34.096
H 10.194 21.759 34.569
H  9.519 20.932 33.186
C 11.179 21.055 31.386
H 11.244 20.031 31.428
H 10.246 21.379 30.904
H 12.022 21.286 30.702
