137

Mg 21.754 24.281 37.708
C 20.334 21.373 38.764
C 22.066 22.822 34.613
H 22.264 22.327 33.659
C 23.132 27.129 36.675
H 23.716 28.01  36.438
C 21.333 25.572 40.919
H 21.292 25.966 41.933
N 21.185 22.379 36.787
C 20.514 21.322 37.399
C 20.106 20.228 36.436
H 20.468 19.272 36.787
C 21.063 20.581 35.252
H 20.379 20.588 34.372
C 21.499 22.049 35.567
C 22.221 19.55  34.914
H 22.852 19.68  35.837
H 21.828 18.58  34.851
H 22.861 19.762 34.123
C 18.59  20.275 36.283
H 18.223 21.323 36.345
H 18.163 19.801 37.208
C 17.932 19.385 35.152
H 18.704 18.735 34.79 
H 17.155 18.764 35.706
C 17.305 20.128 34.017
O 16.846 21.255 34.118
O 17.178 19.306 32.872
N 22.372 24.934 35.838
C 22.508 24.179 34.731
C 23.127 25.055 33.731
C 23.367 26.27  34.228
C 23.017 26.127 35.675
C 23.423 24.6   32.324
H 23.4   25.387 31.616
H 24.471 24.237 32.444
H 22.84  23.747 32.007
C 23.972 27.497 33.592
H 23.766 28.449 34.015
C 24.867 27.522 32.605
H 25.244 26.636 32.113
H 25.287 28.496 32.191
N 22.19  26.033 38.656
C 22.746 27.124 38.014
C 23.048 28.2   39.013
C 22.685 27.627 40.259
C 22.009 26.382 39.969
C 23.743 29.531 38.696
H 24.811 29.365 38.791
H 23.481 29.831 37.687
H 23.334 30.297 39.344
C 22.915 28.3   41.618
H 23.009 27.503 42.374
H 23.811 28.99  41.512
C 21.714 29.085 42.21 
H 22.    29.411 43.172
H 21.527 29.886 41.533
H 20.823 28.483 42.34 
N 21.07  23.581 39.501
C 20.906 24.266 40.707
C 20.252 23.303 41.607
C 20.103 22.099 40.929
C 20.556 22.367 39.646
C 19.953 23.592 43.069
H 20.9   23.595 43.645
H 19.465 24.509 43.28 
H 19.386 22.766 43.381
C 19.692 20.732 41.062
O 19.226 20.1   42.004
C 19.955 20.13  39.657
H 18.968 19.789 39.429
C 21.049 19.143 39.956
O 22.261 19.298 39.985
O 20.551 17.905 40.221
C 21.417 16.849 40.551
H 20.901 15.864 40.639
H 22.276 16.76  39.896
H 21.833 17.118 41.547
C 16.694 19.939 31.689
H 17.484 20.581 31.291
H 15.846 20.512 31.89 
C 16.495 18.82  30.711
H 17.43  18.195 30.62 
C 15.403 18.634 29.906
C 14.381 19.689 29.674
H 14.424 19.985 28.624
H 13.323 19.209 29.878
H 14.409 20.585 30.346
C 15.321 17.468 28.973
H 16.091 17.518 28.156
H 14.265 17.465 28.643
C 15.573 16.048 29.637
H 15.246 16.177 30.652
H 16.6   15.776 29.568
C 14.649 14.96  29.011
H 15.364 14.126 29.08 
H 14.42  15.127 27.912
C 13.474 14.387 29.957
H 13.975 14.106 30.82 
C 12.758 13.155 29.303
H 12.333 12.608 30.133
H 12.056 13.503 28.478
H 13.626 12.664 28.808
C 12.366 15.436 30.314
H 12.895 16.216 30.914
H 11.715 14.949 31.003
C 11.733 16.086 29.085
H 12.215 15.767 28.162
H 11.825 17.171 29.136
C 10.315 15.671 28.923
H 10.101 14.717 29.443
H 10.178 15.433 27.865
C  9.358 16.726 29.338
H  9.676 17.725 28.916
C  9.393 16.803 30.888
H  9.171 15.847 31.325
H 10.339 17.243 31.326
H  8.578 17.462 31.209
C  7.958 16.368 28.78 
H  7.638 15.472 29.339
H  7.95  16.075 27.75 
C  6.866 17.47  29.081
H  7.393 18.31  29.561
H  6.167 17.085 29.782
C  5.916 17.959 27.927
H  4.936 17.924 28.357
H  5.892 17.226 27.142
C  6.039 19.427 27.483
H  6.07  19.973 28.422
C  4.802 19.996 26.578
H  4.462 19.306 25.826
H  3.915 20.202 27.205
H  5.08  20.883 26.068
C  7.423 19.583 26.801
H  7.698 20.625 26.533
H  8.185 19.378 27.527
H  7.645 18.988 25.986
