137

Mg 19.653 22.319 31.236
C 22.831 20.981 31.089
C 21.059 25.275 32.261
H 21.416 26.17  32.719
C 16.548 23.73  31.241
H 15.523 24.186 31.202
C 18.433 19.351 29.988
H 18.029 18.403 29.634
N 21.691 23.038 31.592
C 22.841 22.33  31.406
C 24.038 23.23  31.794
H 24.711 22.675 32.507
C 23.403 24.431 32.581
H 23.844 25.353 32.176
C 21.989 24.279 32.045
C 23.508 24.336 34.109
H 22.948 23.465 34.411
H 24.555 24.407 34.335
H 23.039 25.194 34.564
C 24.831 23.629 30.536
H 24.155 24.156 29.908
H 25.231 22.756 30.027
C 26.135 24.393 30.857
H 26.2   24.752 31.949
H 26.983 23.707 30.61 
C 26.34  25.66  30.129
O 26.724 25.679 28.941
O 25.914 26.736 30.821
N 18.93  24.244 31.623
C 19.665 25.28  32.038
C 18.792 26.45  32.355
C 17.484 26.012 32.142
C 17.611 24.622 31.63 
C 19.295 27.757 32.857
H 20.239 28.006 32.371
H 18.58  28.549 32.595
H 19.411 27.614 33.904
C 16.213 26.706 32.384
H 15.366 26.364 31.807
C 15.994 27.715 33.236
H 16.803 28.06  33.914
H 15.048 28.293 33.315
N 17.795 21.796 30.492
C 16.634 22.463 30.645
C 15.49  21.671 30.105
C 16.076 20.445 29.699
C 17.497 20.501 29.973
C 14.112 22.127 30.121
H 13.577 21.821 31.033
H 14.211 23.195 29.985
H 13.553 21.836 29.257
C 15.365 19.331 29.027
H 14.386 19.711 28.652
H 15.946 18.949 28.22 
C 15.037 18.142 29.96 
H 14.393 17.398 29.433
H 16.004 17.7   30.272
H 14.433 18.5   30.768
N 20.399 20.485 30.778
C 19.77  19.356 30.255
C 20.756 18.319 30.039
C 21.932 18.88  30.476
C 21.71  20.229 30.772
C 20.459 16.876 29.54 
H 19.723 16.888 28.705
H 21.377 16.395 29.232
H 20.023 16.277 30.39 
C 23.369 18.659 30.711
O 23.995 17.625 30.588
C 23.978 20.019 31.158
H 24.768 20.326 30.431
C 24.655 19.705 32.478
O 24.135 19.664 33.564
O 25.944 19.394 32.321
C 26.5   18.644 33.451
H 26.787 19.265 34.349
H 25.787 17.84  33.696
H 27.43  18.147 33.26 
C 25.815 27.966 30.002
H 25.431 27.71  28.994
H 26.814 28.46  29.884
C 24.761 28.893 30.71 
H 24.991 29.208 31.729
C 23.535 29.35  30.367
C 22.913 28.886 29.012
H 22.941 29.737 28.273
H 23.421 28.046 28.599
H 21.889 28.539 29.171
C 22.789 30.23  31.294
H 23.394 30.417 32.171
H 21.868 29.669 31.622
C 22.256 31.555 30.735
H 21.244 31.475 30.329
H 22.97  31.823 29.937
C 22.21  32.671 31.807
H 22.084 32.189 32.841
H 21.257 33.224 31.678
C 23.379 33.737 31.726
H 23.569 34.01  30.772
C 24.663 33.213 32.335
H 24.481 33.092 33.399
H 25.048 32.282 31.972
H 25.457 33.864 32.225
C 22.896 35.043 32.447
H 23.842 35.549 32.769
H 22.234 34.837 33.286
C 22.144 36.024 31.522
H 21.248 35.476 30.96 
H 22.836 36.391 30.816
C 21.638 37.331 32.262
H 22.072 37.316 33.284
H 20.561 37.427 32.159
C 22.191 38.709 31.848
H 22.086 38.727 30.763
C 23.747 38.643 32.068
H 24.116 38.166 32.959
H 24.285 38.082 31.27 
H 24.216 39.613 32.046
C 21.536 39.906 32.553
H 21.821 39.887 33.584
H 20.489 39.642 32.477
C 21.7   41.319 32.017
H 20.711 41.72  31.759
H 22.369 41.354 31.165
C 22.388 42.219 33.021
H 23.017 42.861 32.347
H 22.835 41.583 33.86 
C 21.403 43.233 33.717
H 20.926 43.804 32.936
C 22.272 44.118 34.635
H 21.603 44.768 35.258
H 22.814 43.436 35.368
H 22.928 44.731 34.105
C 20.355 42.537 34.728
H 20.853 41.929 35.442
H 19.667 43.28  35.082
H 19.777 41.759 34.179
