137

Mg 31.008 29.431 37.157
C 28.124 29.142 39.153
C 28.882 29.614 34.363
H 28.31  29.661 33.442
C 33.646 29.928 35.282
H 34.579 30.182 34.719
C 32.959 29.149 39.956
H 33.639 29.019 40.839
N 28.764 29.41  36.804
C 27.792 29.35  37.821
C 26.438 29.25  37.156
H 25.97  28.245 37.39 
C 26.719 29.208 35.677
H 26.187 30.033 35.272
C 28.216 29.483 35.631
C 26.326 27.833 34.949
H 25.196 27.748 35.066
H 26.644 27.844 33.909
H 26.817 27.004 35.394
C 25.413 30.365 37.572
H 25.643 31.214 36.915
H 25.571 30.657 38.584
C 23.913 30.06  37.367
H 23.838 28.959 37.403
H 23.417 30.487 38.274
C 23.15  30.492 36.194
O 22.332 31.39  36.185
O 23.431 29.721 35.116
N 31.219 29.802 35.142
C 30.243 29.787 34.186
C 30.901 29.952 32.904
C 32.329 30.027 33.113
C 32.405 29.959 34.572
C 30.181 29.931 31.538
H 29.088 29.915 31.613
H 30.516 30.683 30.875
H 30.406 29.007 31.134
C 33.435 30.208 32.138
H 34.436 30.13  32.493
C 33.458 30.554 30.815
H 32.525 30.603 30.237
H 34.367 30.818 30.318
N 32.946 29.711 37.597
C 33.924 29.867 36.653
C 35.225 29.886 37.233
C 35.009 29.726 38.668
C 33.611 29.536 38.804
C 36.505 30.317 36.458
H 37.392 30.166 37.132
H 36.624 29.692 35.618
H 36.457 31.426 36.213
C 35.962 29.837 39.813
H 35.942 28.895 40.384
H 36.94  29.996 39.376
C 35.598 31.041 40.709
H 35.544 31.958 40.102
H 34.653 30.838 41.133
H 36.312 31.177 41.534
N 30.659 29.25  39.118
C 31.539 29.089 40.169
C 30.87  28.718 41.393
C 29.479 28.692 40.989
C 29.429 29.114 39.601
C 31.503 28.477 42.761
H 31.611 27.414 42.83 
H 32.525 28.926 42.829
H 30.851 29.004 43.473
C 28.128 28.455 41.446
O 27.789 28.094 42.517
C 27.201 28.715 40.28 
H 26.488 29.55  40.537
C 26.548 27.378 39.929
O 26.967 26.455 39.177
O 25.303 27.418 40.379
C 24.261 26.62  39.779
H 23.29  26.84  40.203
H 24.23  26.932 38.707
H 24.517 25.52  39.768
C 22.697 30.283 33.955
H 23.226 31.181 33.552
H 21.54  30.419 34.158
C 22.931 29.251 32.946
H 23.973 29.145 32.773
C 22.106 28.354 32.489
C 20.585 28.29  32.748
H 20.006 28.552 31.877
H 20.285 27.242 32.904
H 20.197 28.983 33.491
C 22.626 27.204 31.617
H 23.512 27.65  31.193
H 21.98  27.029 30.738
C 22.851 25.836 32.216
H 22.174 25.543 33.003
H 23.9   25.845 32.563
C 22.698 24.734 31.156
H 23.654 24.144 31.127
H 22.587 25.169 30.152
C 21.554 23.662 31.461
H 21.85  23.232 32.422
C 21.729 22.504 30.391
H 22.77  22.222 30.371
H 21.087 21.696 30.741
H 21.448 22.824 29.363
C 20.091 24.152 31.62 
H 20.07  24.767 32.569
H 19.523 23.235 31.73 
C 19.524 25.132 30.553
H 20.238 25.38  29.774
H 19.486 26.08  31.03 
C 18.131 24.734 30.011
H 17.912 23.71  30.393
H 18.049 24.74  28.905
C 16.916 25.542 30.588
H 16.981 26.539 30.338
C 16.976 25.585 32.15 
H 16.772 24.538 32.536
H 17.887 25.996 32.56 
H 16.189 26.15  32.51 
C 15.585 25.029 29.991
H 15.341 24.127 30.524
H 15.788 24.802 28.929
C 14.393 26.029 30.036
H 14.189 26.274 28.954
H 14.755 26.897 30.578
C 13.154 25.384 30.75 
H 13.346 24.361 31.052
H 12.382 25.406 30.049
C 12.834 26.137 32.1  
H 13.685 26.101 32.743
C 11.643 25.427 32.839
H 11.894 24.351 33.099
H 11.593 25.878 33.819
H 10.727 25.355 32.293
C 12.382 27.474 31.762
H 12.008 27.95  32.702
H 13.134 28.095 31.24 
H 11.494 27.42  31.142
