137

Mg 35.938 25.938 31.97 
C 32.495 25.887 31.771
C 35.869 23.486 29.377
H 35.946 22.851 28.521
C 39.21  25.283 32.515
H 40.235 24.965 32.73 
C 35.823 28.102 34.647
H 35.838 28.93  35.334
N 34.411 24.884 30.768
C 33.021 25.042 30.807
C 32.236 24.118 29.877
H 31.531 23.616 30.527
C 33.317 23.097 29.584
H 33.236 22.785 28.509
C 34.64  23.872 29.859
C 33.148 21.812 30.44 
H 34.025 21.172 30.477
H 33.096 22.173 31.445
H 32.335 21.077 30.27 
C 31.412 24.803 28.72 
H 32.085 25.067 27.969
H 31.024 25.713 29.151
C 30.342 23.908 28.038
H 30.493 23.814 26.927
H 30.442 22.937 28.539
C 28.918 24.359 28.196
O 28.012 23.576 28.373
O 28.735 25.726 27.891
N 37.298 24.65  31.109
C 37.092 23.839 29.95 
C 38.408 23.306 29.633
C 39.392 23.779 30.476
C 38.635 24.655 31.392
C 38.575 22.452 28.428
H 38.292 21.523 28.839
H 37.943 22.738 27.598
H 39.598 22.558 28.106
C 40.872 23.546 30.566
H 41.42  24.44  30.928
C 41.536 22.493 30.089
H 41.029 21.722 29.527
H 42.647 22.508 30.04 
N 37.257 26.548 33.362
C 38.631 26.216 33.392
C 39.232 26.915 34.535
C 38.269 27.766 35.072
C 37.053 27.544 34.277
C 40.674 26.814 34.943
H 40.729 26.737 35.958
H 41.098 25.917 34.452
H 41.212 27.683 34.516
C 38.49  28.824 36.196
H 37.655 28.845 36.868
H 39.4   28.577 36.76 
C 38.602 30.205 35.544
H 38.769 30.972 36.273
H 39.54  30.178 35.066
H 37.78  30.451 34.879
N 34.474 26.868 33.076
C 34.585 27.734 34.144
C 33.2   28.151 34.473
C 32.34  27.429 33.592
C 33.169 26.664 32.731
C 32.809 29.113 35.684
H 32.748 30.19  35.438
H 31.827 28.784 36.114
H 33.636 28.922 36.423
C 30.964 27.106 33.249
O 29.911 27.544 33.651
C 30.989 26.089 32.083
H 30.388 26.591 31.274
C 30.363 24.887 32.59 
O 30.858 24.017 33.308
O 29.166 24.724 31.925
C 28.588 23.375 32.035
H 29.291 22.679 31.54 
H 28.35  22.962 33.034
H 27.68  23.409 31.381
C 27.267 26.033 28.048
H 26.9   25.966 29.03 
H 26.675 25.389 27.376
C 27.095 27.518 27.655
H 28.054 27.852 27.207
C 25.999 28.301 27.725
C 24.706 27.892 28.368
H 24.822 26.827 28.72 
H 24.627 28.536 29.235
H 23.88  27.756 27.712
C 26.089 29.71  27.286
H 27.124 29.851 26.936
H 25.887 30.345 28.143
C 25.056 30.295 26.269
H 25.611 30.984 25.622
H 24.282 30.908 26.741
C 24.592 29.228 25.289
H 24.709 28.185 25.618
H 25.248 29.396 24.426
C 23.173 29.484 24.699
H 23.075 30.59  24.398
C 22.096 29.273 25.718
H 21.084 29.364 25.282
H 22.14  28.281 26.157
H 22.238 29.913 26.596
C 22.909 28.638 23.356
H 21.772 28.592 23.167
H 23.388 27.668 23.486
C 23.545 29.291 22.055
H 23.957 28.446 21.472
H 24.424 29.966 22.394
C 22.594 30.092 21.043
H 21.619 30.264 21.481
H 22.344 29.32  20.333
C 22.968 31.442 20.282
H 23.679 31.096 19.565
C 23.693 32.379 21.176
H 23.798 33.204 20.567
H 22.911 32.649 21.83 
H 24.606 32.018 21.684
C 21.742 31.978 19.439
H 21.071 32.452 20.094
H 21.159 31.091 19.083
C 22.102 32.949 18.225
H 22.167 32.28  17.383
H 23.173 33.332 18.26 
C 21.203 34.174 17.943
H 21.887 35.003 18.119
H 20.302 34.183 18.561
C 20.857 34.673 16.527
H 20.408 33.851 16.021
C 22.092 34.928 15.628
H 22.686 35.712 16.032
H 22.788 34.095 15.578
H 21.842 35.085 14.563
C 19.926 35.945 16.529
H 19.765 36.242 15.488
H 19.013 35.618 17.012
H 20.341 36.824 17.081
