137

Mg 21.055 19.444 22.321
C 23.683 21.46  21.366
C 21.161 21.16  25.36 
H 21.225 21.537 26.33 
C 18.393 17.781 23.33 
H 17.596 17.159 23.706
C 20.766 18.202 19.164
H 20.62  17.67  18.201
N 22.126 21.28  23.161
C 23.237 21.92  22.635
C 23.668 23.13  23.535
H 24.706 23.04  23.625
C 22.913 22.82  24.809
H 22.279 23.65  25.046
C 22.019 21.655 24.441
C 23.796 22.546 26.016
H 24.474 23.352 26.199
H 23.168 22.373 26.962
H 24.267 21.602 25.749
C 23.27  24.54  22.879
H 22.16  24.656 22.917
H 23.529 24.577 21.731
C 23.906 25.843 23.506
H 23.714 25.89  24.529
H 24.985 25.637 23.506
C 23.717 27.247 22.924
O 24.369 27.628 21.993
O 22.816 28.1   23.564
N 19.993 19.376 24.015
C 20.211 20.101 25.15 
C 19.336 19.587 26.157
C 18.49  18.601 25.601
C 18.881 18.588 24.272
C 19.206 20.218 27.597
H 19.149 21.341 27.599
H 18.383 19.829 28.149
H 20.122 19.958 28.133
C 17.384 17.867 26.15 
H 16.61  17.519 25.455
C 17.407 17.42  27.435
H 18.217 17.708 28.152
H 16.586 16.81  27.847
N 19.748 18.22  21.373
C 18.697 17.667 21.952
C 18.027 16.742 21.098
C 18.663 16.933 19.923
C 19.767 17.891 20.066
C 16.867 15.712 21.441
H 16.5   15.857 22.465
H 16.009 15.815 20.819
H 17.281 14.642 21.516
C 18.315 16.139 18.726
H 19.226 15.701 18.231
H 17.743 15.349 19.069
C 17.554 16.951 17.761
H 17.071 16.498 16.891
H 16.72  17.45  18.249
H 18.194 17.795 17.504
N 22.004 19.641 20.589
C 21.851 19.086 19.347
C 22.851 19.584 18.374
C 23.631 20.444 19.175
C 23.059 20.517 20.51 
C 23.016 19.234 16.9  
H 22.445 18.309 16.752
H 22.707 20.108 16.332
H 24.1   19.101 16.78 
C 24.862 21.275 19.245
O 25.777 21.442 18.433
C 24.856 21.982 20.569
H 24.818 23.034 20.435
C 26.1   21.698 21.314
O 26.567 20.614 21.619
O 26.799 22.883 21.451
C 28.155 22.837 21.793
H 28.608 23.746 21.957
H 28.191 22.224 22.72 
H 28.712 22.41  20.902
C 22.841 29.48  23.026
H 22.464 29.548 22.013
H 23.869 29.88  23.   
C 21.988 30.357 23.968
H 20.911 30.034 24.016
C 22.359 31.496 24.617
C 23.761 32.102 24.765
H 24.042 32.748 23.919
H 24.124 32.698 25.697
H 24.377 31.222 24.867
C 21.29  32.24  25.449
H 21.757 32.267 26.45 
H 20.458 31.603 25.568
C 20.931 33.661 25.001
H 21.537 33.988 24.164
H 21.14  34.312 25.805
C 19.475 33.885 24.485
H 18.855 33.191 25.134
H 19.614 33.475 23.476
C 18.884 35.315 24.34 
H 19.548 35.962 23.862
C 18.516 35.913 25.738
H 17.644 35.321 26.065
H 19.411 35.812 26.417
H 18.282 36.986 25.565
C 17.596 35.278 23.411
H 16.944 36.143 23.694
H 17.042 34.407 23.706
C 17.748 35.302 21.837
H 16.912 34.652 21.538
H 18.613 34.641 21.653
C 17.926 36.69  21.143
H 18.814 36.631 20.471
H 18.305 37.476 21.842
C 16.813 37.168 20.191
H 16.749 36.387 19.41 
C 17.333 38.457 19.384
H 16.662 38.825 18.551
H 17.35  39.303 20.044
H 18.295 38.337 18.922
C 15.403 37.445 20.777
H 15.526 38.331 21.399
H 15.21  36.538 21.357
C 14.27  37.595 19.702
H 13.72  36.686 19.742
H 14.797 37.627 18.71 
C 13.33  38.792 19.982
H 13.626 39.162 20.964
H 12.325 38.434 19.935
C 13.504 39.975 18.944
H 14.475 40.422 19.127
C 12.46  41.028 19.247
H 12.357 41.387 20.255
H 12.577 41.866 18.538
H 11.46  40.62  19.008
C 13.491 39.61  17.434
H 14.36  38.992 17.174
H 12.557 39.059 17.231
H 13.61  40.527 16.827
