137

Mg 26.818 34.168 41.221
C 25.012 31.342 41.746
C 24.014 35.664 39.887
H 23.216 36.149 39.256
C 28.552 37.179 41.   
H 29.172 38.081 40.946
C 29.627 32.727 42.636
H 30.517 32.229 43.065
N 24.782 33.557 40.811
C 24.223 32.327 41.126
C 22.729 32.233 40.688
H 22.747 31.447 40.   
C 22.497 33.532 40.021
H 21.623 34.067 40.49 
C 23.808 34.375 40.291
C 22.203 33.405 38.531
H 22.191 34.494 38.226
H 22.875 32.681 37.994
H 21.15  33.087 38.244
C 21.738 31.977 41.865
H 21.597 32.908 42.51 
H 22.146 31.17  42.445
C 20.275 31.61  41.45 
H 20.291 31.206 40.483
H 19.938 30.882 42.218
C 19.357 32.751 41.439
O 18.838 33.285 42.418
O 19.306 33.33  40.186
N 26.337 36.156 40.593
C 25.084 36.53  40.044
C 25.234 37.882 39.7  
C 26.5   38.394 40.054
C 27.2   37.207 40.547
C 24.171 38.728 39.068
H 24.225 38.74  38.005
H 23.178 38.391 39.397
H 24.42  39.783 39.3  
C 26.986 39.774 40.092
H 26.359 40.577 40.515
C 28.203 40.123 39.509
H 28.823 39.342 39.113
H 28.555 41.145 39.526
N 28.704 34.856 41.753
C 29.228 36.14  41.623
C 30.638 36.174 41.951
C 30.95  34.874 42.487
C 29.703 34.093 42.258
C 31.576 37.342 41.785
H 31.112 38.225 42.189
H 32.487 37.239 42.323
H 31.828 37.412 40.802
C 32.177 34.444 43.255
H 32.554 33.536 42.896
H 33.013 35.179 43.071
C 31.954 34.279 44.759
H 32.88  33.834 45.094
H 31.996 35.248 45.219
H 31.169 33.642 45.024
N 27.259 32.466 42.033
C 28.432 31.948 42.553
C 28.297 30.585 42.989
C 26.966 30.34  42.658
C 26.358 31.526 42.168
C 29.344 29.677 43.572
H 28.976 28.682 43.759
H 30.204 29.633 42.875
H 29.71  30.21  44.512
C 26.034 29.362 42.595
O 26.164 28.177 42.864
C 24.658 29.983 42.134
H 24.002 29.941 43.015
C 24.104 29.154 40.964
O 24.62  28.831 39.934
O 22.907 28.659 41.416
C 22.371 27.559 40.643
H 23.111 26.783 40.566
H 21.419 27.17  40.985
H 22.077 27.952 39.577
C 18.503 34.561 40.201
H 19.065 35.355 40.727
H 17.463 34.517 40.664
C 18.299 34.908 38.75 
H 17.54  34.275 38.249
C 18.92  35.785 37.955
C 19.983 36.748 38.414
H 20.885 36.739 37.802
H 19.532 37.704 38.475
H 20.386 36.503 39.421
C 18.581 35.995 36.466
H 18.056 35.03  36.236
H 19.543 35.863 35.964
C 17.724 37.183 35.997
H 18.374 37.954 35.639
H 17.088 37.63  36.765
C 16.977 36.745 34.806
H 15.899 36.563 35.119
H 17.378 35.809 34.392
C 16.789 37.887 33.677
H 16.616 38.855 34.241
C 15.497 37.765 32.813
H 14.678 37.427 33.499
H 15.31  38.758 32.325
H 15.56  37.119 31.952
C 18.033 38.059 32.9  
H 18.864 38.37  33.576
H 17.932 38.963 32.33 
C 18.569 36.876 32.016
H 18.824 37.368 31.084
H 17.718 36.211 31.739
C 19.807 36.143 32.641
H 19.996 36.582 33.66 
H 20.588 36.454 32.015
C 19.671 34.631 32.715
H 18.73  34.379 33.177
C 20.725 33.954 33.704
H 20.565 32.869 33.568
H 21.773 34.183 33.54 
H 20.502 34.116 34.754
C 19.791 34.067 31.341
H 20.865 33.999 30.991
H 19.274 34.75  30.652
C 19.2   32.667 31.133
H 18.704 32.185 31.986
H 20.033 32.077 30.934
C 18.22  32.534 30.009
H 18.105 33.401 29.371
H 17.238 32.234 30.298
C 18.68 31.46 28.97
H 19.713 31.63  28.643
C 17.788 31.501 27.699
H 18.261 30.76  27.069
H 16.823 31.177 28.083
H 17.744 32.479 27.262
C 18.449 30.12  29.688
H 17.403 30.091 30.063
H 18.745 29.215 29.202
H 18.843 30.225 30.681
