137

Mg 35.378 36.434 35.163
C 31.996 35.972 35.173
C 35.764 33.224 34.314
H 35.767 32.114 34.129
C 38.6   36.844 35.399
H 39.651 37.034 35.594
C 34.774 39.637 36.409
H 34.562 40.693 36.679
N 34.049 34.831 34.751
C 32.745 34.874 34.719
C 32.121 33.587 34.178
H 31.331 33.308 34.867
C 33.279 32.6   34.392
H 33.549 31.979 33.53 
C 34.462 33.569 34.51 
C 33.11  31.514 35.459
H 33.008 31.982 36.444
H 32.098 31.104 35.318
H 33.9   30.824 35.454
C 31.667 33.836 32.751
H 32.555 34.238 32.235
H 30.822 34.583 32.777
C 31.195 32.647 31.978
H 32.053 32.3   31.449
H 30.982 31.831 32.675
C 30.073 32.856 30.974
O 29.987 33.821 30.181
O 29.164 31.789 31.087
N 36.971 35.207 34.832
C 36.969 33.959 34.513
C 38.285 33.454 34.39 
C 39.211 34.47  34.715
C 38.275 35.634 34.982
C 38.646 32.047 33.945
H 38.655 31.21  34.71 
H 37.811 31.849 33.191
H 39.604 32.079 33.484
C 40.677 34.489 34.697
H 41.107 35.488 34.459
C 41.628 33.504 34.906
H 41.373 32.494 35.232
H 42.686 33.766 34.761
N 36.55  38.029 35.72 
C 37.868 37.993 35.769
C 38.332 39.317 36.17 
C 37.268 40.101 36.46 
C 36.102 39.209 36.27 
C 39.802 39.722 36.286
H 40.113 40.221 35.393
H 39.983 40.317 37.186
H 40.409 38.818 36.44 
C 37.19  41.521 36.901
H 36.437 41.728 37.67 
H 38.195 41.831 37.29 
C 37.075 42.406 35.634
H 37.081 43.491 35.964
H 37.911 42.147 34.936
H 36.117 42.15  35.126
N 33.785 37.617 35.709
C 33.614 38.899 36.097
C 32.316 39.388 36.063
C 31.624 38.277 35.747
C 32.561 37.198 35.618
C 31.747 40.804 36.267
H 31.945 41.024 37.312
H 32.132 41.473 35.499
H 30.709 40.666 36.268
C 30.315 37.728 35.459
O 29.219 38.281 35.39 
C 30.5   36.211 35.32 
H 29.981 35.948 34.391
C 29.843 35.606 36.48 
O 30.109 35.745 37.659
O 28.917 34.699 36.016
C 28.046 34.109 37.052
H 27.646 34.82  37.791
H 27.152 33.628 36.563
H 28.594 33.341 37.562
C 28.068 31.783 30.162
H 28.417 31.642 29.088
H 27.607 32.773 30.244
C 26.983 30.822 30.533
H 26.574 30.994 31.51 
C 26.478 29.816 29.845
C 27.078 29.076 28.64 
H 28.106 29.405 28.418
H 27.018 27.991 28.632
H 26.501 29.378 27.815
C 25.385 29.061 30.446
H 25.165 29.485 31.407
H 25.803 28.056 30.607
C 24.103 28.942 29.546
H 24.027 27.853 29.403
H 24.043 29.616 28.586
C 22.956 29.478 30.439
H 23.237 29.771 31.422
H 22.26  28.626 30.546
C 21.998 30.507 29.831
H 21.725 30.333 28.782
C 22.767 31.922 29.78 
H 22.135 32.752 29.666
H 23.217 32.012 30.739
H 23.476 31.847 29.029
C 20.691 30.599 30.61 
H 20.041 29.708 30.481
H 20.175 31.321 30.023
C 20.724 31.178 32.031
H 20.172 32.056 32.052
H 21.757 31.243 32.335
C 20.264 30.166 33.121
H 21.178 29.647 33.421
H 19.656 29.496 32.563
C 19.621 30.79  34.392
H 18.64  31.195 34.065
C 20.609 31.837 34.975
H 20.817 32.642 34.236
H 20.224 32.293 35.898
H 21.541 31.309 35.097
C 19.342 29.571 35.389
H 18.953 30.083 36.251
H 20.159 28.936 35.708
C 18.317 28.544 34.88 
H 18.926 27.603 34.831
H 17.944 28.829 33.881
C 17.118 28.368 35.806
H 16.133 28.509 35.343
H 17.262 29.015 36.674
C 17.059 26.886 36.384
H 18.025 26.361 36.6  
C 16.408 26.014 35.269
H 15.343 26.05  35.089
H 16.914 26.386 34.364
H 16.743 24.969 35.345
C 16.193 26.674 37.673
H 16.162 25.655 37.924
H 16.503 27.195 38.545
H 15.208 26.969 37.404
