137

Mg 19.822 18.923 22.027
C 22.661 20.406 21.063
C 20.027 20.636 25.052
H 20.195 20.945 26.062
C 16.882 17.671 22.968
H 15.916 17.184 23.208
C 19.661 17.154 18.991
H 19.688 16.51  18.122
N 20.966 20.512 22.765
C 22.111 21.002 22.204
C 22.831 22.134 23.042
H 23.854 21.837 23.109
C 22.172 21.878 24.383
H 21.781 22.851 24.701
C 20.958 20.972 24.071
C 23.085 21.398 25.52 
H 23.627 22.283 25.929
H 22.517 20.802 26.277
H 23.889 20.815 25.084
C 22.57  23.518 22.317
H 21.491 23.661 22.354
H 22.931 23.356 21.296
C 23.261 24.729 23.007
H 22.746 25.001 23.955
H 24.23  24.278 23.374
C 23.709 25.882 22.166
O 24.076 25.776 21.037
O 23.616 27.089 22.816
N 18.629 19.109 23.797
C 18.952 19.799 24.928
C 17.877 19.697 25.891
C 16.942 18.828 25.368
C 17.505 18.439 24.015
C 17.733 20.433 27.197
H 18.486 21.261 27.326
H 16.765 20.986 27.128
H 17.797 19.715 27.967
C 15.64 18.33 25.81
H 14.919 17.949 25.079
C 15.143 18.311 27.044
H 15.69  18.667 27.908
H 14.084 17.954 27.244
N 18.464 17.7   21.116
C 17.245 17.346 21.63 
C 16.563 16.606 20.64 
C 17.327 16.495 19.516
C 18.528 17.196 19.792
C 15.284 15.914 20.766
H 15.305 15.126 21.52 
H 14.465 16.584 20.994
H 15.022 15.412 19.859
C 16.94  15.859 18.169
H 17.794 15.645 17.58 
H 16.476 14.881 18.319
C 15.876 16.66  17.326
H 16.149 16.554 16.287
H 14.867 16.292 17.333
H 15.918 17.649 17.601
N 20.976 18.723 20.439
C 20.845 17.882 19.294
C 22.048 18.023 18.473
C 22.767 18.975 19.158
C 22.049 19.418 20.319
C 22.525 17.373 17.224
H 21.869 16.725 16.73 
H 22.708 18.218 16.555
H 23.487 16.83  17.261
C 24.046 19.664 19.137
O 24.947 19.613 18.345
C 24.024 20.568 20.416
H 24.214 21.577 20.25 
C 25.215 20.063 21.287
O 25.273 18.942 21.682
O 25.916 21.076 21.881
C 26.947 20.579 22.799
H 27.473 19.704 22.539
H 27.699 21.415 22.723
H 26.467 20.573 23.789
C 24.035 28.212 21.997
H 23.387 28.322 21.165
H 25.114 28.065 21.713
C 23.805 29.349 23.046
H 22.774 29.604 23.258
C 24.708 30.003 23.836
C 26.195 29.775 23.881
H 26.4   28.922 24.535
H 26.673 29.557 22.907
H 26.62  30.704 24.193
C 24.241 31.147 24.652
H 24.704 30.933 25.647
H 23.14  31.119 24.783
C 24.635 32.595 24.288
H 25.112 32.623 23.259
H 25.434 32.977 25.016
C 23.393 33.472 24.184
H 22.566 33.194 24.856
H 23.041 33.309 23.167
C 23.738 35.021 24.246
H 24.743 35.029 23.694
C 24.018 35.469 25.673
H 23.129 35.608 26.239
H 24.767 34.936 26.268
H 24.435 36.506 25.661
C 22.524 35.858 23.68 
H 22.847 36.883 23.932
H 21.687 35.634 24.211
C 22.33  35.896 22.164
H 21.478 35.241 21.957
H 23.262 35.466 21.695
C 21.923 37.323 21.549
H 22.753 37.578 20.87 
H 22.091 38.016 22.353
C 20.514 37.47  20.883
H 20.358 36.65  20.284
C 20.514 38.626 19.895
H 19.817 38.484 19.065
H 20.459 39.638 20.279
H 21.454 38.382 19.342
C 19.359 37.623 21.935
H 19.692 38.494 22.495
H 19.477 36.749 22.592
C 17.994 37.666 21.294
H 17.389 37.012 21.861
H 18.062 37.333 20.267
C 17.437 39.062 21.456
H 18.172 39.724 21.843
H 16.601 39.033 22.167
C 16.721 39.616 20.145
H 17.458 39.597 19.322
C 16.295 41.124 20.388
H 17.107 41.672 20.814
H 15.906 41.447 19.406
H 15.537 41.097 21.213
C 15.423 38.85  19.79 
H 15.668 37.798 19.513
H 14.772 38.987 20.674
H 14.954 39.398 18.942
