137

Mg 21.979 19.501 25.892
C 22.314 18.465 22.586
C 24.829 21.213 25.682
H 25.729 21.841 25.571
C 21.933 19.971 29.259
H 22.01  20.064 30.326
C 19.308 17.206 26.212
H 18.591 16.392 26.22 
N 23.271 20.045 24.201
C 23.312 19.39  22.925
C 24.422 19.924 22.086
H 25.078 19.093 21.839
C 25.186 20.888 23.074
H 25.127 21.933 22.798
C 24.369 20.747 24.455
C 26.729 20.6   23.245
H 26.914 19.582 23.259
H 27.219 21.107 22.347
H 27.156 21.112 24.102
C 23.881 20.659 20.783
H 23.119 21.251 21.209
H 23.309 19.925 20.187
C 24.878 21.449 19.931
H 25.893 21.304 20.345
H 24.736 21.04  18.88 
C 24.687 22.984 19.792
O 25.131 23.653 18.89 
O 23.981 23.578 20.814
N 23.155 20.631 27.241
C 24.29  21.204 26.973
C 24.805 21.912 28.155
C 24.019 21.54  29.208
C 22.974 20.656 28.603
C 26.119 22.773 28.153
H 26.785 22.666 27.261
H 25.9   23.927 28.268
H 26.662 22.399 29.002
C 24.044 21.891 30.645
H 23.433 21.362 31.408
C 24.727 22.93  31.187
H 25.324 23.666 30.608
H 24.649 23.078 32.3  
N 20.777 18.806 27.465
C 20.925 19.153 28.78 
C 19.893 18.51  29.569
C 19.121 17.679 28.69 
C 19.738 17.882 27.389
C 19.608 18.789 30.968
H 19.918 17.946 31.649
H 20.042 19.745 31.262
H 18.551 18.97  31.164
C 17.98  16.734 28.924
H 18.121 15.885 28.356
H 17.948 16.454 29.955
C 16.635 17.369 28.437
H 15.906 16.654 28.752
H 16.484 18.288 28.887
H 16.729 17.553 27.416
N 20.869 18.262 24.69 
C 19.8   17.418 24.929
C 19.349 16.755 23.727
C 20.327 17.106 22.836
C 21.23  18.087 23.411
C 18.166 15.804 23.549
H 17.996 15.683 22.474
H 18.444 14.797 23.983
H 17.218 16.178 23.926
C 20.73  16.822 21.518
O 20.271 16.028 20.657
C 21.99  17.743 21.245
H 21.842 18.502 20.512
C 23.049 16.784 20.903
O 23.277 15.66  21.304
O 23.659 17.321 19.809
C 24.679 16.424 19.14 
H 25.087 15.627 19.671
H 24.221 15.89  18.282
H 25.567 17.058 18.93 
C 23.94  25.061 20.829
H 23.586 25.434 19.838
H 24.936 25.408 21.061
C 23.194 25.443 22.074
H 23.463 24.876 22.94 
C 22.239 26.406 22.185
C 21.778 27.254 21.033
H 22.634 27.944 20.849
H 21.682 26.598 20.171
H 20.944 27.954 21.19 
C 21.618 26.659 23.546
H 21.793 25.861 24.212
H 20.521 26.444 23.356
C 21.784 27.992 24.265
H 20.809 28.412 24.544
H 22.21  28.669 23.525
C 22.761 27.845 25.421
H 23.046 26.822 25.667
H 22.198 28.207 26.304
C 24.107 28.633 25.287
H 23.927 29.583 24.734
C 25.056 27.885 24.367
H 25.816 27.292 24.905
H 24.556 27.182 23.69 
H 25.596 28.646 23.869
C 24.755 28.883 26.676
H 25.712 29.285 26.32 
H 24.834 27.857 27.16 
C 23.863 29.821 27.592
H 22.918 30.258 27.244
H 24.525 30.677 27.755
C 23.766 29.25  29.036
H 24.429 29.809 29.698
H 24.237 28.26  29.051
C 22.352 29.111 29.68 
H 21.768 28.538 28.999
C 21.72  30.526 29.917
H 20.781 30.275 30.447
H 22.19  31.261 30.489
H 21.46  30.869 28.972
C 22.519 28.218 30.946
H 23.263 28.751 31.592
H 22.883 27.263 30.682
C 21.236 28.097 31.76 
H 21.022 26.991 31.739
H 20.27  28.496 31.352
C 21.349 28.557 33.162
H 21.38  29.643 33.237
H 22.261 28.209 33.559
C 20.252 28.012 34.158
H 19.258 28.323 33.786
C 20.338 28.682 35.519
H 19.651 28.192 36.246
H 21.333 28.474 35.852
H 20.084 29.728 35.571
C 20.283 26.485 34.234
H 19.625 26.226 35.067
H 19.794 26.029 33.393
H 21.32  26.115 34.475
