137

Mg 27.438 29.045 37.815
C 24.408 28.223 39.577
C 25.829 27.838 35.005
H 25.323 27.534 34.118
C 30.055 30.09  36.046
H 30.825 30.521 35.495
C 28.735 30.244 40.755
H 29.276 30.527 41.655
N 25.338 28.337 37.334
C 24.282 28.058 38.195
C 23.087 27.449 37.55 
H 22.856 26.531 38.038
C 23.555 27.123 36.08 
H 22.915 27.654 35.387
C 25.016 27.803 36.1  
C 23.507 25.618 35.739
H 22.435 25.28  35.861
H 23.965 25.335 34.86 
H 24.07  25.097 36.508
C 21.746 28.426 37.619
H 21.875 29.265 36.944
H 21.597 28.766 38.651
C 20.452 27.739 37.007
H 20.543 26.675 36.85 
H 19.625 28.066 37.589
C 19.811 28.315 35.711
O 18.686 28.793 35.634
O 20.625 28.2   34.646
N 27.972 28.848 35.903
C 27.148 28.374 34.855
C 27.901 28.424 33.619
C 29.11  29.068 33.894
C 29.112 29.389 35.32 
C 27.461 28.002 32.208
H 27.588 26.891 32.174
H 26.37  28.152 32.151
H 28.006 28.622 31.444
C 30.182 29.41  32.95 
H 30.485 28.619 32.328
C 30.5   30.703 32.719
H 30.001 31.445 33.362
H 31.084 31.058 31.872
N 29.152 30.027 38.283
C 30.128 30.35  37.44 
C 31.26  30.869 38.192
C 30.903 30.866 39.532
C 29.495 30.46  39.587
C 32.609 31.199 37.561
H 32.453 32.02  36.869
H 33.315 31.584 38.261
H 33.149 30.393 37.085
C 31.775 31.356 40.725
H 31.347 31.022 41.628
H 32.653 30.785 40.674
C 32.03 32.86 40.8 
H 31.08  33.416 40.822
H 32.659 33.064 41.666
H 32.614 33.15  39.918
N 26.815 29.158 39.779
C 27.503 29.651 40.929
C 26.673 29.384 42.071
C 25.485 28.744 41.571
C 25.57  28.708 40.2  
C 26.989 29.623 43.435
H 27.859 28.947 43.699
H 27.256 30.694 43.6  
H 26.113 29.318 44.077
C 24.227 28.189 41.908
O 23.78  27.909 43.008
C 23.405 27.938 40.657
H 22.622 28.699 40.905
C 22.807 26.584 40.79 
O 23.46  25.593 40.463
O 21.552 26.627 41.352
C 21.053 25.234 41.634
H 21.761 24.647 42.237
H 20.154 25.356 42.252
H 20.851 24.66  40.749
C 20.226 28.928 33.404
H 20.376 29.972 33.505
H 19.206 28.699 33.037
C 21.334 28.523 32.317
H 22.351 28.769 32.722
C 21.06  28.185 31.036
C 19.682 28.027 30.531
H 19.685 27.782 29.482
H 19.247 27.24  31.097
H 19.022 28.865 30.707
C 22.169 28.048 29.995
H 23.03  28.698 30.195
H 21.819 28.506 29.131
C 22.453 26.53  29.629
H 21.981 25.922 30.367
H 23.544 26.265 29.69 
C 21.965 26.037 28.268
H 22.843 26.018 27.601
H 21.36  26.819 27.806
C 21.141 24.678 28.175
H 21.878 23.923 28.54 
C 20.916 24.031 26.823
H 20.702 22.971 26.98 
H 20.068 24.45  26.265
H 21.843 24.048 26.293
C 19.812 24.58  28.945
H 20.008 24.897 29.997
H 19.464 23.523 29.036
C 18.747 25.518 28.32 
H 19.11  26.243 27.641
H 18.192 26.042 29.065
C 17.691 24.702 27.494
H 17.996 23.691 27.463
H 17.809 25.033 26.45 
C 16.239 24.827 28.124
H 16.001 25.913 28.247
C 16.143 24.174 29.528
H 16.25  23.081 29.511
H 16.965 24.484 30.171
H 15.3   24.604 30.069
C 15.271 24.137 27.151
H 15.403 23.1   27.215
H 15.403 24.502 26.082
C 13.715 24.369 27.45 
H 13.257 24.847 26.593
H 13.583 25.107 28.223
C 12.951 23.073 27.787
H 13.529 22.182 27.525
H 12.05  23.067 27.065
C 12.385 22.87  29.212
H 13.27  23.126 29.768
C 11.804 21.465 29.557
H 12.614 20.744 29.197
H 11.769 21.196 30.636
H 10.871 21.332 29.17 
C 11.341 23.872 29.493
H 11.748 24.825 29.645
H 10.695 23.84  28.694
H 10.854 23.652 30.434
