137

Mg 35.427 32.475 34.734
C 33.578 29.963 33.248
C 38.077 31.767 32.428
H 38.917 31.432 31.732
C 37.374 34.694 36.313
H 38.121 35.268 36.872
C 33.15  32.697 37.318
H 32.377 32.853 38.033
N 35.752 31.01  33.108
C 34.797 30.123 32.558
C 35.253 29.349 31.265
H 35.232 28.266 31.406
C 36.827 29.828 31.246
H 37.098 30.26  30.287
C 36.919 30.965 32.338
C 37.661 28.574 31.523
H 37.259 27.934 32.337
H 37.675 27.997 30.602
H 38.679 28.828 31.751
C 34.534 29.888 30.   
H 34.773 30.897 29.828
H 33.501 30.123 30.216
C 34.557 28.86  28.883
H 35.445 29.027 28.234
H 34.676 27.863 29.331
C 33.431 28.628 27.896
O 33.428 28.801 26.705
O 32.363 28.079 28.607
N 37.327 33.167 34.402
C 38.237 32.799 33.369
C 39.508 33.569 33.457
C 39.309 34.432 34.547
C 37.922 34.146 35.099
C 40.687 33.514 32.522
H 40.328 33.232 31.591
H 41.11  34.495 32.358
H 41.417 32.796 32.889
C 40.287 35.415 35.118
H 39.874 36.236 35.766
C 41.645 35.445 34.984
H 42.312 34.685 34.519
H 42.179 36.34  35.405
N 35.27  33.446 36.535
C 36.203 34.364 36.974
C 35.707 35.061 38.168
C 34.531 34.378 38.515
C 34.243 33.52  37.388
C 36.204 36.271 38.87 
H 37.123 36.655 38.43 
H 35.448 37.052 38.968
H 36.413 35.965 39.792
C 33.615 34.589 39.739
H 33.263 33.582 40.047
H 34.196 34.877 40.582
C 32.511 35.633 39.544
H 31.738 35.192 38.957
H 32.065 35.904 40.525
H 32.901 36.545 39.043
N 33.715 31.564 35.174
C 32.814 31.741 36.299
C 31.668 30.867 36.12 
C 31.919 30.201 34.882
C 33.201 30.635 34.423
C 30.576 30.814 37.09 
H 29.763 30.205 36.593
H 30.792 30.23  38.004
H 30.349 31.777 37.366
C 31.451 29.191 34.031
O 30.446 28.51  34.123
C 32.402 28.977 32.83 
H 31.818 29.257 31.95 
C 32.783 27.546 32.795
O 33.812 27.195 33.275
O 31.912 26.76  32.037
C 32.426 25.588 31.282
H 32.719 24.98  32.016
H 31.659 25.244 30.572
H 33.331 25.891 30.708
C 31.248 27.678 27.738
H 31.619 27.015 27.012
H 30.801 28.585 27.249
C 30.294 27.256 28.777
H 29.717 28.046 29.274
C 29.833 26.004 28.945
C 30.254 24.759 28.32 
H 30.445 23.997 29.062
H 29.448 24.329 27.681
H 31.108 24.914 27.637
C 28.807 25.837 30.046
H 28.744 26.73  30.705
H 29.242 25.115 30.697
C 27.416 25.647 29.643
H 27.176 24.593 29.735
H 27.392 25.948 28.569
C 26.219 26.394 30.397
H 25.909 27.244 29.784
H 26.548 26.699 31.409
C 24.916 25.492 30.397
H 25.239 24.484 30.825
C 24.268 25.385 29.016
H 23.44  24.692 29.059
H 23.806 26.39  28.846
H 25.082 25.155 28.228
C 23.912 25.739 31.562
H 24.364 25.459 32.492
H 23.044 25.115 31.489
C 23.318 27.171 31.714
H 22.288 27.067 31.96 
H 23.421 27.741 30.79 
C 24.039 27.938 32.908
H 24.346 28.965 32.521
H 25.01  27.491 33.26 
C 23.145 28.267 34.096
H 22.138 28.464 33.718
C 23.552 29.621 34.86 
H 23.6   30.398 34.096
H 22.759 29.928 35.497
H 24.546 29.561 35.31 
C 22.958 27.041 35.053
H 23.533 27.306 35.926
H 23.496 26.272 34.517
C 21.493 26.717 35.335
H 21.124 26.117 34.486
H 20.829 27.588 35.388
C 21.243 25.814 36.59 
H 20.798 26.288 37.421
H 22.154 25.355 36.895
C 20.323 24.634 36.214
H 20.644 24.071 35.368
C 18.881 25.185 35.855
H 18.306 24.357 35.571
H 18.309 25.68  36.686
H 18.833 25.849 35.02 
C 20.234 23.761 37.462
H 19.616 22.89  37.433
H 21.243 23.385 37.669
H 19.991 24.344 38.369
