137

Mg 20.474 19.488 25.657
C 22.754 19.048 23.04 
C 22.352 22.068 26.806
H 22.848 22.968 27.131
C 18.225 19.954 28.126
H 17.476 20.054 28.975
C 18.564 16.985 24.356
H 17.935 16.147 24.048
N 22.273 20.528 24.972
C 23.099 20.131 23.893
C 24.372 21.02  23.88 
H 25.156 20.359 24.303
C 24.034 22.126 24.97 
H 23.779 23.017 24.459
C 22.789 21.553 25.632
C 25.235 22.574 25.915
H 25.889 21.793 26.303
H 25.88  23.208 25.264
H 25.027 23.147 26.809
C 24.83  21.526 22.574
H 24.082 22.342 22.226
H 24.801 20.736 21.875
C 26.289 22.055 22.472
H 26.839 21.567 23.353
H 26.827 21.696 21.611
C 26.524 23.509 22.585
O 27.579 24.057 22.222
O 25.49  24.328 23.085
N 20.364 20.714 27.258
C 21.226 21.703 27.605
C 20.891 22.3   28.937
C 19.669 21.671 29.351
C 19.411 20.714 28.285
C 21.704 23.393 29.618
H 21.262 23.617 30.609
H 22.7   23.044 29.646
H 21.505 24.344 29.013
C 18.627 21.815 30.42 
H 17.859 21.046 30.717
C 18.533 22.962 31.171
H 19.102 23.885 31.035
H 17.666 23.026 31.887
N 18.65  18.728 26.08 
C 17.875 19.055 27.128
C 16.615 18.349 27.092
C 16.609 17.539 25.95 
C 17.998 17.762 25.388
C 15.665 18.523 28.228
H 14.944 17.749 28.145
H 16.151 18.305 29.127
H 15.118 19.45  28.239
C 15.528 16.556 25.462
H 15.916 15.484 25.568
H 14.64  16.658 26.027
C 15.117 16.785 23.932
H 15.835 16.445 23.163
H 14.247 16.143 23.842
H 14.74  17.782 23.69 
N 20.525 18.235 24.037
C 19.744 17.156 23.668
C 20.304 16.472 22.514
C 21.49  17.211 22.298
C 21.586 18.274 23.201
C 19.742 15.347 21.707
H 19.836 15.607 20.7  
H 20.363 14.476 21.993
H 18.712 15.14  21.931
C 22.643 17.243 21.448
O 22.92  16.549 20.462
C 23.525 18.401 21.893
H 23.589 19.054 21.03 
C 24.787 17.703 22.258
O 24.938 17.024 23.276
O 25.767 18.018 21.41 
C 27.166 17.861 21.868
H 27.367 18.115 22.949
H 27.46  16.831 21.672
H 27.837 18.485 21.295
C 25.704 25.726 22.881
H 25.585 25.989 21.832
H 26.594 26.064 23.304
C 24.511 26.4   23.518
H 23.571 26.46  22.933
C 24.405 26.99  24.697
C 25.509 27.031 25.764
H 25.076 26.656 26.649
H 26.268 26.351 25.428
H 25.863 28.032 25.954
C 23.072 27.609 25.067
H 22.696 27.02  25.952
H 22.367 27.419 24.286
C 23.116 29.109 25.3  
H 24.017 29.413 24.806
H 23.192 29.475 26.314
C 21.959 29.896 24.573
H 20.98  29.599 25.014
H 21.983 29.596 23.53 
C 21.968 31.456 24.695
H 23.014 31.642 24.433
C 21.732 31.914 26.209
H 20.653 31.864 26.457
H 22.238 31.295 26.933
H 22.158 32.938 26.274
C 20.972 32.221 23.786
H 20.974 33.27  24.253
H 19.897 31.848 23.941
C 21.408 32.285 22.29 
H 20.632 32.507 21.6  
H 21.901 31.371 22.012
C 22.433 33.361 21.978
H 23.277 32.86  21.595
H 22.781 33.869 22.832
C 21.877 34.518 20.974
H 21.487 34.049 20.002
C 22.972 35.387 20.35 
H 22.682 35.94  19.469
H 23.275 36.096 21.091
H 23.844 34.799 20.076
C 20.708 35.389 21.584
H 20.995 35.952 22.446
H 20.02  34.669 21.924
C 19.946 36.32  20.624
H 18.872 36.299 20.774
H 20.27  36.12  19.579
C 20.326 37.799 20.864
H 21.009 38.028 20.064
H 20.919 38.14  21.698
C 19.186 38.792 21.077
H 18.295 38.7   20.33 
C 19.541 40.227 20.764
H 20.069 40.283 19.838
H 18.682 40.965 20.724
H 20.233 40.477 21.6  
C 18.415 38.719 22.427
H 18.01  37.78  22.548
H 19.139 38.833 23.233
H 17.751 39.597 22.453
