137

Mg 19.84  25.748 31.827
C 21.573 24.221 34.329
C 17.985 27.465 34.232
H 17.484 28.004 35.019
C 17.994 27.218 29.393
H 17.407 27.62  28.615
C 22.11  24.606 29.481
H 22.862 24.088 28.867
N 19.692 25.656 34.003
C 20.559 25.014 34.846
C 20.254 25.381 36.289
H 20.113 24.352 36.802
C 18.895 26.145 36.221
H 19.003 27.097 36.657
C 18.89  26.526 34.705
C 17.687 25.458 36.899
H 17.358 24.642 36.206
H 17.914 25.194 37.983
H 16.738 26.051 36.871
C 21.398 26.165 36.937
H 21.597 27.122 36.446
H 22.346 25.541 36.879
C 21.293 26.569 38.458
H 20.428 25.984 38.849
H 22.107 26.124 38.946
C 21.335 28.013 38.75 
O 22.324 28.676 39.072
O 20.041 28.465 38.756
N 18.182 27.16  31.844
C 17.613 27.786 32.898
C 16.717 28.877 32.478
C 16.648 28.75  31.1  
C 17.606 27.66  30.724
C 16.094 29.89  33.411
H 15.053 29.619 33.61 
H 16.623 30.085 34.335
H 16.143 30.746 32.691
C 15.932 29.663 30.119
H 16.413 29.89  29.18 
C 14.877 30.389 30.421
H 14.427 30.312 31.374
H 14.514 31.18  29.707
N 19.985 25.939 29.753
C 19.078 26.45  28.921
C 19.53  26.319 27.552
C 20.675 25.574 27.623
C 21.009 25.376 28.981
C 18.736 26.946 26.351
H 17.673 26.552 26.248
H 18.687 28.041 26.565
H 19.332 26.743 25.413
C 21.597 25.236 26.47 
H 22.209 24.35  26.729
H 20.909 24.976 25.601
C 22.549 26.377 26.206
H 23.495 25.989 25.91 
H 22.124 26.955 25.416
H 22.786 26.963 27.103
N 21.494 24.681 31.869
C 22.302 24.173 30.827
C 23.397 23.312 31.415
C 23.112 23.23  32.784
C 21.986 24.062 32.999
C 24.579 22.731 30.722
H 24.968 23.46  29.972
H 25.326 22.416 31.437
H 24.34  21.867 30.129
C 23.475 22.742 34.094
O 24.451 22.132 34.436
C 22.478 23.25  35.098
H 23.07  23.698 35.927
C 21.771 22.06  35.678
O 20.693 21.751 35.266
O 22.605 21.378 36.504
C 21.955 20.344 37.229
H 22.368 20.189 38.202
H 20.95  20.641 37.447
H 21.946 19.44  36.568
C 19.906 29.78  39.296
H 20.491 30.5   38.732
H 20.249 29.89  40.307
C 18.472 30.331 39.028
H 17.832 29.967 39.836
C 17.965 30.931 37.94 
C 18.834 31.351 36.751
H 19.458 32.238 37.072
H 19.578 30.588 36.556
H 18.168 31.611 35.904
C 16.506 31.317 37.838
H 16.106 31.09  38.807
H 16.096 30.723 37.1  
C 16.198 32.834 37.537
H 17.038 33.453 37.355
H 15.611 33.243 38.379
C 15.434 32.971 36.159
H 15.526 32.087 35.588
H 15.888 33.803 35.608
C 13.928 33.143 36.281
H 13.706 33.769 37.136
C 13.282 31.769 36.588
H 13.238 31.163 35.698
H 13.8   31.249 37.399
H 12.204 31.801 36.815
C 13.287 33.755 34.998
H 12.271 33.361 34.933
H 13.777 33.332 34.133
C 13.327 35.336 34.977
H 14.243 35.533 35.555
H 12.434 35.659 35.551
C 13.393 35.822 33.586
H 12.609 36.502 33.461
H 13.02  35.053 32.928
C 14.829 36.387 33.017
H 15.662 35.796 33.298
C 15.09  37.717 33.767
H 15.976 38.08  33.421
H 14.386 38.505 33.689
H 15.269 37.349 34.819
C 14.833 36.545 31.446
H 15.68  37.103 31.138
H 13.913 37.11  31.238
C 14.673 35.211 30.577
H 14.894 34.419 31.286
H 15.419 35.183 29.699
C 13.307 34.996 29.923
H 12.686 35.887 30.113
H 12.901 34.214 30.516
C 13.269 34.664 28.408
H 14.115 34.036 28.282
C 13.632 35.957 27.567
H 12.84  36.735 27.701
H 14.593 36.399 27.78 
H 13.664 35.587 26.525
C 12.024 33.869 28.146
H 12.037 33.511 27.098
H 11.876 33.057 28.834
H 11.236 34.592 28.3  
