137

Mg 36.156 33.383 34.823
C 33.282 32.279 33.522
C 37.897 31.336 32.734
H 38.357 30.51  32.213
C 39.044 34.488 36.221
H 39.969 34.644 36.726
C 34.351 35.107 37.251
H 33.801 35.782 37.892
N 35.655 32.125 33.196
C 34.377 31.803 32.823
C 34.359 31.004 31.453
H 33.574 30.286 31.482
C 35.844 30.464 31.432
H 36.336 30.648 30.512
C 36.515 31.332 32.515
C 35.851 28.952 31.709
H 35.577 28.762 32.773
H 35.217 28.358 31.024
H 36.908 28.698 31.647
C 33.923 31.902 30.253
H 34.853 32.445 30.035
H 33.075 32.503 30.529
C 33.586 31.234 28.906
H 34.363 31.529 28.236
H 33.699 30.167 28.989
C 32.264 31.368 28.265
O 31.99  32.302 27.481
O 31.442 30.325 28.591
N 38.217 33.1   34.401
C 38.708 32.147 33.545
C 40.185 32.026 33.731
C 40.55  33.075 34.703
C 39.279 33.668 35.121
C 41.041 30.957 33.036
H 40.909 30.041 33.628
H 40.686 30.765 32.043
H 42.043 31.202 33.027
C 41.845 33.453 35.177
H 41.976 34.548 35.436
C 42.869 32.607 35.437
H 42.795 31.48  35.341
H 43.79  32.962 35.879
N 36.602 34.527 36.602
C 37.863 34.983 36.92 
C 37.798 35.785 38.089
C 36.411 35.944 38.375
C 35.709 35.143 37.397
C 38.958 36.526 38.819
H 38.893 36.283 39.884
H 40.015 36.348 38.52 
H 38.86  37.62  38.819
C 35.902 36.881 39.423
H 34.986 36.463 39.836
H 36.576 37.004 40.278
C 35.673 38.322 38.874
H 34.982 38.878 39.498
H 36.692 38.774 38.721
H 35.216 38.162 37.895
N 34.282 33.703 35.268
C 33.649 34.405 36.252
C 32.177 34.316 36.126
C 32.019 33.425 35.08 
C 33.277 33.073 34.584
C 30.99  34.919 36.881
H 30.374 34.066 37.204
H 31.405 35.417 37.736
H 30.493 35.606 36.158
C 31.006 32.743 34.264
O 29.794 32.759 34.349
C 31.822 32.05  33.181
H 31.503 32.316 32.2  
C 31.533 30.644 33.32 
O 31.838 29.977 34.273
O 30.844 30.189 32.221
C 30.378 28.801 32.304
H 29.602 28.771 31.573
H 31.192 28.221 31.792
H 30.259 28.412 33.363
C 30.105 30.398 27.919
H 30.191 29.883 26.995
H 29.61  31.413 27.951
C 29.158 29.532 28.557
H 29.345 29.568 29.582
C 28.291 28.629 27.988
C 28.137 28.387 26.432
H 28.785 27.604 26.12 
H 27.166 28.159 25.929
H 28.416 29.278 25.939
C 27.509 27.736 28.9  
H 27.756 28.013 29.916
H 27.849 26.664 28.881
C 25.963 27.829 28.609
H 25.813 26.865 28.031
H 25.755 28.679 27.905
C 25.18  27.791 29.927
H 24.555 28.654 29.849
H 25.763 27.898 30.84 
C 24.344 26.497 30.13 
H 25.15  25.738 30.241
C 23.365 26.115 28.958
H 22.887 25.161 29.243
H 22.593 26.863 28.638
H 23.966 25.898 28.095
C 23.771 26.436 31.602
H 24.597 26.375 32.216
H 23.203 25.481 31.627
C 22.702 27.515 31.95 
H 21.852 27.121 32.436
H 22.292 27.958 30.973
C 23.312 28.628 32.846
H 22.979 29.565 32.401
H 24.372 28.652 32.829
C 22.853 28.519 34.279
H 21.75  28.47  34.229
C 23.069 29.828 35.125
H 22.794 29.751 36.145
H 24.121 30.131 35.075
H 22.489 30.666 34.678
C 23.319 27.328 35.023
H 24.369 27.469 35.341
H 23.429 26.533 34.304
C 22.435 26.94  36.327
H 22.13  25.886 36.199
H 21.586 27.589 36.503
C 23.205 27.095 37.689
H 22.848 27.966 38.259
H 24.273 27.274 37.398
C 23.074 25.789 38.604
H 23.406 24.913 37.976
C 21.769 25.57  39.275
H 21.567 24.582 39.692
H 21.744 26.247 40.116
H 20.87  25.828 38.689
C 24.094 25.975 39.713
H 23.741 26.56  40.499
H 24.307 24.984 40.126
H 25.076 26.341 39.41 
