137

Mg 24.15  31.497 36.745
C 22.802 29.358 39.178
C 21.004 31.684 35.367
H 19.982 31.745 35.006
C 25.494 33.251 34.277
H 25.906 33.805 33.439
C 27.163 31.436 38.522
H 28.135 31.274 39.034
N 22.131 30.605 37.216
C 21.83  29.768 38.277
C 20.249 29.401 38.315
H 20.213 28.29  38.308
C 19.75  30.092 37.015
H 18.966 30.837 37.301
C 21.035 30.886 36.518
C 19.131 29.137 35.907
H 19.23  29.523 34.91 
H 19.574 28.137 35.899
H 18.084 28.82  35.954
C 19.477 29.861 39.491
H 19.373 30.923 39.592
H 20.05  29.482 40.374
C 18.079 29.305 39.495
H 17.865 28.528 38.775
H 17.917 28.604 40.351
C 16.891 30.273 39.55 
O 16.329 30.627 40.581
O 16.537 30.671 38.282
N 23.309 32.365 35.05 
C 22.001 32.37  34.708
C 21.936 33.048 33.365
C 23.224 33.502 33.08 
C 24.085 33.043 34.146
C 20.676 33.202 32.602
H 20.85  32.71  31.623
H 19.861 32.578 33.019
H 20.574 34.308 32.407
C 23.748 34.441 32.07 
H 24.638 35.012 32.22 
C 23.107 34.785 30.925
H 22.182 34.28  30.613
H 23.454 35.585 30.283
N 26.006 32.301 36.451
C 26.401 32.929 35.319
C 27.852 33.064 35.294
C 28.285 32.634 36.576
C 27.098 32.107 37.271
C 28.682 33.548 34.163
H 28.748 34.591 34.368
H 29.729 33.214 34.249
H 28.272 33.411 33.213
C 29.653 32.565 37.116
H 29.644 31.591 37.557
H 30.424 32.482 36.32 
C 30.081 33.617 38.157
H 30.831 33.22  38.774
H 30.353 34.518 37.74 
H 29.273 33.866 38.815
N 24.832 30.748 38.494
C 26.063 30.799 39.114
C 26.034 30.121 40.373
C 24.832 29.479 40.344
C 24.128 29.842 39.207
C 27.175 29.883 41.302
H 28.068 29.838 40.655
H 27.191 30.725 42.004
H 27.005 28.955 41.832
C 24.027 28.543 41.165
O 24.173 28.021 42.263
C 22.71  28.251 40.332
H 21.897 28.448 41.054
C 22.77  26.859 39.942
O 23.67  26.346 39.308
O 21.684 26.149 40.432
C 21.817 24.723 40.18 
H 21.01  24.133 40.594
H 21.848 24.445 39.125
H 22.78  24.383 40.605
C 15.321 31.484 38.192
H 15.378 32.262 38.904
H 14.51  30.81  38.372
C 15.137 32.057 36.821
H 14.537 31.373 36.189
C 15.236 33.293 36.425
C 16.063 34.307 37.189
H 16.763 33.79  37.818
H 16.626 34.877 36.452
H 15.347 35.008 37.711
C 14.707 33.654 35.017
H 14.374 32.744 34.572
H 15.502 34.064 34.384
C 13.564 34.688 34.829
H 13.55  35.416 35.6  
H 12.596 34.136 34.899
C 13.549 35.306 33.346
H 12.562 35.344 32.894
H 14.218 34.732 32.675
C 14.124 36.741 33.36 
H 13.621 37.244 34.18 
C 13.783 37.411 32.021
H 14.101 36.699 31.233
H 12.697 37.626 31.958
H 14.272 38.399 31.914
C 15.756 36.877 33.626
H 15.883 36.392 34.634
H 15.994 37.929 33.652
C 16.703 36.147 32.717
H 16.032 35.89  31.833
H 16.954 35.182 33.135
C 18.035 36.865 32.427
H 18.882 36.278 32.738
H 18.043 37.879 32.887
C 18.316 37.173 30.931
H 17.348 37.569 30.533
C 18.7   35.919 30.137
H 18.825 36.017 29.082
H 19.721 35.668 30.477
H 18.062 35.063 30.33 
C 19.344 38.289 30.504
H 19.54  38.204 29.446
H 20.324 38.183 31.05 
C 18.774 39.754 30.79 
H 17.801 39.635 31.219
H 18.539 40.207 29.805
C 19.755 40.642 31.548
H 20.483 41.013 30.785
H 20.278 39.94  32.26 
C 19.111 41.846 32.237
H 18.322 41.435 32.824
C 18.528 42.902 31.274
H 18.278 43.818 31.788
H 19.253 42.97  30.481
H 17.632 42.427 30.94 
C 20.09  42.429 33.283
H 19.614 43.161 33.921
H 20.319 41.574 33.949
H 20.881 42.982 32.81 
