137

Mg 20.338 24.579 36.468
C 18.716 21.649 37.022
C 21.164 23.525 33.29 
H 21.68  23.118 32.346
C 21.437 27.709 35.725
H 21.937 28.689 35.442
C 19.428 25.586 39.58 
H 19.27  25.872 40.624
N 19.958 22.789 35.281
C 19.213 21.735 35.687
C 19.191 20.612 34.633
H 19.611 19.739 35.039
C 20.166 21.187 33.536
H 19.608 21.26  32.608
C 20.518 22.578 34.089
C 21.455 20.415 33.389
H 21.765 19.965 34.319
H 21.27  19.531 32.758
H 22.233 21.022 32.87 
C 17.692 20.311 34.226
H 17.402 21.298 33.837
H 17.019 20.027 35.04 
C 17.6   19.255 33.18 
H 18.545 18.699 32.916
H 16.971 18.592 33.759
C 16.936 19.592 31.86 
O 16.512 20.683 31.486
O 16.764 18.465 31.167
N 21.149 25.487 34.788
C 21.401 24.876 33.578
C 22.055 25.859 32.737
C 22.192 27.046 33.385
C 21.584 26.747 34.697
C 22.551 25.619 31.265
H 22.683 26.516 30.706
H 23.505 25.114 31.303
H 21.828 25.069 30.713
C 22.705 28.362 32.978
H 22.291 29.193 33.534
C 23.83  28.595 32.265
H 24.368 27.721 31.81 
H 24.28  29.564 32.087
N 20.471 26.37  37.466
C 20.906 27.595 36.988
C 21.013 28.525 38.027
C 20.362 27.909 39.148
C 20.019 26.616 38.731
C 21.65  29.874 37.855
H 22.576 29.762 37.304
H 21.106 30.575 37.183
H 21.818 30.425 38.823
C 20.164 28.627 40.507
H 20.299 27.933 41.383
H 20.865 29.456 40.751
C 18.817 29.397 40.55 
H 18.419 29.719 41.49 
H 18.933 30.182 39.814
H 18.062 28.729 40.148
N 19.254 23.825 37.997
C 18.969 24.317 39.211
C 18.256 23.306 40.005
C 18.188 22.219 39.181
C 18.821 22.601 37.948
C 17.801 23.341 41.445
H 16.86  22.872 41.616
H 18.468 22.832 42.056
H 17.783 24.331 41.859
C 17.739 20.865 39.05 
O 17.152 20.157 39.859
C 18.093 20.449 37.584
H 17.161 20.186 37.078
C 19.066 19.285 37.828
O 20.145 19.361 38.383
O 18.441 18.142 37.464
C 19.15  16.883 37.813
H 18.619 16.097 37.29 
H 20.184 16.893 37.643
H 19.011 16.76  38.884
C 16.068 18.64  29.879
H 16.787 19.039 29.145
H 15.206 19.326 29.922
C 15.476 17.291 29.413
H 15.99  16.688 28.757
C 14.28  16.737 29.744
C 13.295 17.472 30.69 
H 14.013 17.879 31.393
H 12.84  18.3   30.233
H 12.62  16.87  31.156
C 13.803 15.391 29.095
H 14.349 15.323 28.179
H 12.836 15.602 28.702
C 13.731 14.21  30.123
H 13.646 14.523 31.157
H 14.72  13.838 30.07 
C 12.64  13.149 29.755
H 13.178 12.231 29.403
H 12.073 13.488 28.952
C 11.659 12.878 30.929
H 12.247 12.51  31.792
C 10.801 11.691 30.522
H 11.4   10.741 30.526
H  9.977 11.525 31.227
H 10.212 11.694 29.566
C 10.695 14.075 31.341
H 11.318 15.018 31.54 
H 10.155 13.835 32.295
C  9.611 14.614 30.405
H  9.044 13.773 29.93 
H 10.263 15.046 29.632
C  8.688 15.679 30.962
H  9.017 15.98  31.935
H  7.665 15.269 30.975
C  8.416 17.003 30.115
H  8.191 16.705 29.118
C  9.644 17.912 30.119
H  9.308 18.849 29.671
H  9.842 18.138 31.188
H 10.66  17.692 29.654
C  7.192 17.751 30.639
H  7.574 18.322 31.522
H  6.427 17.063 31.12 
C  6.617 18.867 29.785
H  7.259 18.922 28.961
H  6.752 19.767 30.336
C  5.126 18.578 29.307
H  4.453 19.353 29.715
H  4.819 17.595 29.635
C  4.996 18.634 27.691
H  5.294 19.51  27.25 
C  3.537 18.474 27.31 
H  3.019 17.585 27.81 
H  2.904 19.368 27.47 
H  3.49  18.295 26.252
C  5.874 17.593 27.096
H  5.694 17.424 25.964
H  6.889 17.927 27.176
H  5.779 16.721 27.717
