137

Mg 25.721 31.593 38.253
C 23.194 31.97  40.694
C 23.969 33.911 36.429
H 23.403 34.589 35.759
C 28.195 31.467 35.993
H 29.02  31.418 35.289
C 27.546 29.702 40.462
H 28.153 29.175 41.171
N 23.879 32.765 38.529
C 23.013 32.767 39.596
C 21.772 33.647 39.407
H 20.844 32.999 39.488
C 22.012 34.183 38.021
H 22.149 35.284 38.099
C 23.345 33.593 37.623
C 20.759 34.028 37.043
H 20.901 32.958 36.765
H 19.934 34.228 37.682
H 20.812 34.663 36.18 
C 21.634 34.767 40.486
H 22.25  35.661 40.218
H 21.927 34.457 41.487
C 20.184 35.352 40.546
H 19.409 34.647 40.124
H 19.877 35.514 41.603
C 19.827 36.688 39.849
O 20.069 37.816 40.245
O 19.274 36.349 38.581
N 26.117 32.706 36.582
C 25.247 33.52  35.924
C 25.777 33.899 34.623
C 27.041 33.269 34.526
C 27.174 32.414 35.675
C 25.283 34.928 33.683
H 25.583 35.83  34.105
H 25.68  34.872 32.704
H 24.204 34.82  33.731
C 28.081 33.366 33.443
H 28.742 32.482 33.226
C 28.231 34.507 32.665
H 27.603 35.379 32.982
H 29.122 34.649 32.029
N 27.554 30.659 38.16 
C 28.408 30.738 37.156
C 29.682 30.102 37.424
C 29.494 29.463 38.715
C 28.126 29.91  39.178
C 30.875 30.056 36.446
H 30.95  31.012 35.957
H 31.767 29.842 36.885
H 30.665 29.342 35.699
C 30.522 28.701 39.603
H 30.    28.357 40.511
H 31.094 27.947 39.028
C 31.513 29.726 40.15 
H 31.083 30.261 40.988
H 32.374 29.149 40.437
H 31.832 30.445 39.439
N 25.495 30.823 40.061
C 26.3   30.028 40.861
C 25.655 29.748 42.084
C 24.432 30.43  42.017
C 24.414 31.145 40.809
C 26.218 28.877 43.15 
H 25.436 28.601 43.842
H 26.508 27.889 42.669
H 26.964 29.396 43.684
C 23.232 30.609 42.716
O 22.856 30.103 43.752
C 22.288 31.518 41.855
H 21.937 32.262 42.56 
C 21.176 30.594 41.444
O 21.311 29.454 41.051
O 20.    31.2   41.529
C 18.822 30.392 41.17 
H 18.942 29.975 40.182
H 18.457 29.688 41.923
H 17.988 31.09  41.037
C 18.811 37.532 37.82 
H 19.622 38.243 37.599
H 18.014 38.029 38.355
C 18.26  36.988 36.492
H 17.379 36.411 36.63 
C 18.729 37.219 35.223
C 20.147 37.832 34.983
H 20.577 37.163 34.242
H 20.157 38.766 34.489
H 20.792 37.898 35.805
C 18.142 36.587 33.977
H 17.28  35.971 34.249
H 18.875 35.955 33.484
C 17.74  37.612 32.946
H 18.393 37.353 32.026
H 18.072 38.535 33.331
C 16.249 37.774 32.78 
H 15.981 38.722 33.281
H 15.618 36.996 33.26 
C 15.658 37.859 31.328
H 16.434 38.468 30.831
C 14.216 38.583 31.313
H 14.295 39.581 31.751
H 13.879 38.747 30.331
H 13.509 38.082 31.975
C 15.61  36.56  30.488
H 16.592 36.143 30.404
H 15.295 36.859 29.451
C 14.465 35.539 30.945
H 13.533 35.885 30.427
H 14.315 35.775 31.998
C 14.713 34.096 30.753
H 14.637 33.663 31.775
H 15.679 33.969 30.402
C 13.901 33.294 29.712
H 12.841 33.154 30.03 
C 14.335 31.744 29.655
H 13.72  31.248 28.912
H 15.402 31.895 29.419
H 14.276 31.337 30.669
C 13.875 33.986 28.289
H 14.83  34.09  27.953
H 13.515 34.955 28.54 
C 12.915 33.341 27.198
H 12.121 34.083 26.949
H 12.432 32.492 27.623
C 13.682 32.896 25.966
H 14.315 32.039 26.202
H 14.314 33.724 25.568
C 12.756 32.446 24.838
H 12.095 31.689 25.232
C 13.523 31.534 23.831
H 12.975 31.289 22.912
H 14.446 32.058 23.531
H 13.797 30.657 24.393
C 12.013 33.593 24.077
H 11.62  33.096 23.249
H 11.337 34.099 24.75 
H 12.816 34.315 23.834
