137

Mg 22.594 32.351 31.181
C 21.635 29.137 30.422
C 19.417 32.975 32.403
H 18.401 33.301 32.639
C 23.473 35.588 31.743
H 23.746 36.591 32.055
C 25.468 31.905 29.224
H 26.377 31.758 28.756
N 20.683 31.169 31.396
C 20.607 29.856 31.136
C 19.193 29.365 31.417
H 18.687 28.879 30.56 
C 18.439 30.729 31.715
H 17.927 30.704 32.671
C 19.545 31.74  31.819
C 17.419 31.184 30.574
H 17.033 32.197 30.82 
H 17.748 31.056 29.533
H 16.608 30.484 30.792
C 19.127 28.374 32.662
H 19.313 28.995 33.644
H 19.869 27.622 32.575
C 17.756 27.712 32.728
H 16.964 28.215 32.202
H 17.876 26.714 32.404
C 17.13  27.742 34.163
O 17.159 26.804 34.938
O 16.485 28.905 34.296
N 21.668 33.934 32.   
C 20.413 34.001 32.475
C 20.183 35.318 33.006
C 21.344 36.057 32.872
C 22.286 35.18  32.219
C 18.85  35.687 33.61 
H 18.96  36.649 34.1  
H 18.152 35.822 32.794
H 18.487 34.93  34.24 
C 21.619 37.421 33.374
H 22.499 37.614 34.06 
C 20.684 38.385 33.325
H 19.746 38.267 32.701
H 20.77  39.388 33.763
N 24.243 33.582 30.532
C 24.372 34.865 30.945
C 25.592 35.326 30.382
C 26.134 34.316 29.583
C 25.306 33.16  29.812
C 26.049 36.794 30.38 
H 25.23  37.523 30.545
H 26.716 36.817 31.269
H 26.542 36.983 29.432
C 27.332 34.379 28.775
H 27.158 33.8   27.907
H 27.454 35.452 28.492
C 28.544 33.812 29.575
H 28.513 34.338 30.451
H 28.612 32.77  29.697
H 29.375 34.133 28.936
N 23.47  30.864 30.096
C 24.565 30.797 29.286
C 24.684 29.438 28.676
C 23.48  28.86  29.055
C 22.865 29.683 29.937
C 25.788 28.947 27.704
H 25.628 29.246 26.68 
H 26.787 29.346 28.123
H 25.763 27.851 27.662
C 22.708 27.641 28.86 
O 22.956 26.652 28.218
C 21.448 27.727 29.733
H 21.681 26.921 30.484
C 20.294 27.493 28.889
O 19.813 28.357 28.192
O 19.892 26.198 29.005
C 18.632 25.902 28.307
H 18.862 26.033 27.216
H 18.3   24.942 28.563
H 17.928 26.565 28.606
C 15.835 29.125 35.581
H 16.617 29.526 36.304
H 15.281 28.301 35.96 
C 14.925 30.285 35.303
H 13.956 29.988 34.898
C 15.112 31.568 35.673
C 16.427 32.192 35.929
H 16.56  33.018 35.193
H 16.559 32.395 36.954
H 17.23  31.498 35.615
C 14.042 32.538 35.346
H 13.169 31.988 34.974
H 14.377 33.057 34.439
C 13.668 33.527 36.472
H 14.617 33.741 36.998
H 13.099 32.92  37.145
C 12.888 34.716 36.061
H 11.99  34.759 36.545
H 12.749 34.643 34.984
C 13.51  36.068 36.359
H 13.696 36.217 37.437
C 12.443 37.205 36.059
H 12.716 38.177 36.634
H 12.303 37.519 35.063
H 11.441 37.026 36.538
C 14.881 36.279 35.742
H 15.6   35.536 36.175
H 15.232 37.348 35.991
C 14.933 36.226 34.22 
H 13.916 36.092 33.875
H 15.57  35.356 33.955
C 15.421 37.527 33.606
H 16.486 37.565 33.808
H 14.969 38.367 34.066
C 15.308 37.724 32.069
H 14.271 37.934 31.817
C 15.646 36.433 31.232
H 16.718 36.166 31.37 
H 15.019 35.575 31.47 
H 15.525 36.693 30.181
C 16.179 38.861 31.538
H 16.044 39.146 30.505
H 17.211 38.531 31.722
C 15.99  40.166 32.303
H 15.004 40.208 32.736
H 15.914 40.978 31.562
C 17.127 40.475 33.257
H 17.843 39.653 33.398
H 16.56  40.553 34.189
C 17.901 41.847 33.01 
H 17.369 42.712 32.672
C 19.023 41.798 31.913
H 19.975 41.281 32.194
H 18.54  41.399 30.989
H 19.347 42.837 31.731
C 18.434 42.173 34.396
H 19.179 42.962 34.415
H 17.559 42.407 35.041
H 18.964 41.3   34.819
