137

Mg 27.948 33.658 40.663
C 26.225 30.703 40.431
C 26.08  34.892 38.03 
H 25.445 35.373 37.266
C 29.356 36.656 41.17 
H 29.808 37.592 41.297
C 29.928 32.253 43.142
H 30.579 32.047 44.011
N 26.264 32.958 39.523
C 25.685 31.703 39.604
C 24.586 31.556 38.56 
H 24.739 30.524 38.147
C 24.789 32.815 37.588
H 23.911 33.427 37.418
C 25.773 33.623 38.46 
C 25.44  32.424 36.187
H 25.217 33.25  35.488
H 26.49  32.159 36.262
H 25.011 31.528 35.863
C 23.18  31.598 39.254
H 23.03  32.568 39.51 
H 23.26  31.044 40.17 
C 22.    31.125 38.463
H 22.336 31.039 37.391
H 21.732 30.15  38.845
C 20.616 31.799 38.441
O 19.536 31.252 38.718
O 20.708 33.15  38.305
N 27.82  35.486 39.719
C 26.991 35.764 38.603
C 27.054 37.221 38.399
C 28.085 37.75  39.194
C 28.431 36.632 40.065
C 26.383 37.922 37.257
H 26.236 38.92  37.614
H 26.989 37.944 36.336
H 25.371 37.52  36.847
C 28.761 39.079 39.266
H 29.842 38.97  39.606
C 28.136 40.273 39.081
H 27.094 40.3   38.914
H 28.67  41.238 39.206
N 29.582 34.336 41.865
C 29.925 35.646 41.978
C 31.026 35.814 43.034
C 31.035 34.536 43.641
C 30.147 33.659 42.915
C 31.754 37.054 43.357
H 31.128 37.995 43.386
H 32.203 36.836 44.32 
H 32.543 37.21  42.629
C 31.829 34.133 44.92 
H 32.218 33.123 44.739
H 32.684 34.775 45.049
C 31.003 34.12  46.276
H 31.229 35.035 46.707
H 29.957 34.102 46.115
H 31.318 33.279 46.889
N 28.152 31.86  41.615
C 29.046 31.384 42.534
C 28.878 29.956 42.754
C 27.757 29.686 41.97 
C 27.289 30.855 41.312
C 29.651 29.111 43.659
H 30.564 28.91  43.088
H 29.817 29.742 44.526
H 29.076 28.24  44.021
C 26.941 28.625 41.657
O 27.038 27.459 42.056
C 25.804 29.183 40.693
H 24.827 28.994 41.165
C 25.783 28.306 39.514
O 26.477 28.427 38.559
O 24.825 27.274 39.589
C 24.88  26.435 38.364
H 25.751 25.769 38.559
H 24.163 25.578 38.297
H 25.079 26.908 37.43 
C 19.389 33.744 38.393
H 18.948 33.801 39.382
H 18.739 33.346 37.664
C 19.524 35.153 37.847
H 19.79  35.202 36.797
C 19.371 36.365 38.462
C 19.142 36.397 39.919
H 18.236 35.839 40.22 
H 19.971 35.893 40.517
H 19.194 37.368 40.299
C 19.553 37.667 37.714
H 19.907 37.619 36.676
H 20.284 38.206 38.331
C 18.373 38.592 37.745
H 18.662 39.566 37.949
H 17.629 38.439 38.557
C 17.544 38.559 36.446
H 16.65  38.07  36.693
H 17.981 37.906 35.714
C 17.265 39.951 35.771
H 17.119 40.61  36.638
C 15.958 39.919 34.939
H 15.088 39.795 35.575
H 15.9   40.723 34.221
H 16.008 39.188 34.131
C 18.42  40.668 34.954
H 19.271 40.834 35.56 
H 18.103 41.636 34.723
C 19.029 39.934 33.715
H 18.586 40.25  32.73 
H 18.903 38.917 33.838
C 20.535 40.199 33.402
H 21.022 40.662 34.345
H 20.563 41.039 32.635
C 21.359 38.957 32.934
H 21.517 38.266 33.777
C 22.704 39.521 32.621
H 22.634 40.288 31.875
H 23.074 39.952 33.56 
H 23.396 38.715 32.385
C 20.703 38.207 31.721
H 21.461 37.965 31.011
H 19.957 38.825 31.213
C 20.079 36.895 32.08 
H 20.234 36.688 33.164
H 20.593 36.082 31.6  
C 18.558 36.785 31.776
H 18.437 37.21  30.76 
H 17.949 37.302 32.492
C 17.84  35.339 31.869
H 18.199 34.62  31.105
C 16.297 35.528 31.831
H 15.9   34.579 31.614
H 15.918 36.07  32.691
H 16.247 36.164 30.953
C 18.043 34.751 33.269
H 17.256 33.999 33.397
H 19.028 34.312 33.362
H 17.925 35.413 34.108
