137

Mg 31.156 28.903 36.066
C 28.321 28.862 38.066
C 29.166 28.917 33.315
H 28.483 28.834 32.517
C 33.923 29.475 34.223
H 34.83  29.553 33.644
C 33.018 28.933 38.907
H 33.625 29.108 39.812
N 28.992 28.942 35.764
C 27.969 29.015 36.689
C 26.605 29.013 36.084
H 26.001 28.206 36.479
C 26.878 28.742 34.561
H 26.529 29.636 34.06 
C 28.428 28.842 34.541
C 26.296 27.418 33.846
H 25.273 27.644 33.814
H 26.735 27.371 32.81 
H 26.395 26.487 34.403
C 25.661 30.288 36.255
H 26.004 31.084 35.566
H 25.809 30.589 37.299
C 24.139 30.105 35.995
H 24.042 29.038 35.841
H 23.614 30.306 36.873
C 23.516 30.911 34.922
O 22.883 31.941 35.06 
O 23.655 30.176 33.737
N 31.452 29.282 34.114
C 30.539 29.223 33.134
C 31.119 29.326 31.828
C 32.51  29.495 32.055
C 32.7  29.42 33.55
C 30.282 29.054 30.505
H 29.563 29.861 30.278
H 30.939 29.011 29.721
H 29.706 28.118 30.58 
C 33.651 29.458 31.131
H 34.57  29.061 31.595
C 33.569 29.781 29.792
H 32.622 30.198 29.375
H 34.346 29.688 28.957
N 33.131 29.266 36.507
C 34.162 29.469 35.599
C 35.406 29.643 36.305
C 35.085 29.634 37.672
C 33.709 29.241 37.74 
C 36.701 29.964 35.636
H 36.965 29.24  34.89 
H 36.763 30.937 35.147
H 37.484 29.975 36.399
C 36.    30.085 38.863
H 35.896 29.407 39.729
H 37.024 30.108 38.579
C 35.621 31.493 39.397
H 34.563 31.521 39.712
H 36.263 31.783 40.173
H 35.712 32.144 38.569
N 30.809 28.711 38.029
C 31.69  28.641 39.09 
C 30.97  28.47  40.342
C 29.667 28.509 39.987
C 29.62  28.678 38.57 
C 31.549 28.641 41.685
H 32.52  28.309 41.637
H 31.689 29.705 41.899
H 31.106 27.948 42.39 
C 28.28  28.529 40.498
O 27.762 28.442 41.592
C 27.398 28.774 39.227
H 26.871 29.716 39.281
C 26.479 27.582 39.035
O 26.866 26.43  38.763
O 25.175 27.961 39.234
C 24.297 26.851 39.551
H 23.806 26.384 38.7  
H 24.82  26.069 40.064
H 23.547 27.139 40.289
C 23.14  30.917 32.61 
H 23.674 31.837 32.463
H 22.066 31.133 32.826
C 23.481 30.063 31.488
H 24.543 29.886 31.297
C 22.612 29.321 30.78 
C 21.172 29.252 31.135
H 20.888 30.278 31.274
H 20.545 28.846 30.328
H 20.994 28.796 32.113
C 23.02  28.528 29.634
H 24.025 28.703 29.304
H 22.31  28.856 28.854
C 23.047 27.084 30.015
H 22.51  26.847 30.928
H 24.092 26.984 30.241
C 22.556 26.17  28.854
H 23.407 25.632 28.474
H 22.004 26.802 28.097
C 21.612 25.053 29.35 
H 22.058 24.52  30.218
C 21.517 23.986 28.255
H 20.64  23.395 28.453
H 21.369 24.397 27.337
H 22.319 23.357 28.129
C 20.182 25.54  29.927
H 20.332 26.285 30.761
H 19.791 24.589 30.291
C 19.198 26.246 28.952
H 19.516 26.147 27.936
H 19.126 27.324 29.127
C 17.842 25.577 28.996
H 17.886 24.765 29.792
H 17.646 25.124 28.077
C 16.656 26.492 29.338
H 16.64  27.308 28.548
C 16.696 27.093 30.732
H 16.608 26.32  31.492
H 17.711 27.454 30.839
H 15.977 27.864 30.795
C 15.388 25.635 29.246
H 15.568 24.928 30.096
H 15.33  25.047 28.385
C 14.043 26.309 29.579
H 14.049 27.359 29.425
H 13.759 26.115 30.637
C 12.846 25.694 28.758
H 13.191 25.127 27.866
H 12.334 26.598 28.393
C 11.877 24.8   29.553
H 12.319 23.899 30.008
C 10.71  24.377 28.583
H 11.154 23.864 27.768
H  9.926 23.808 29.115
H 10.177 25.267 28.249
C 11.304 25.571 30.755
H 10.247 25.373 30.905
H 11.89  25.345 31.6  
H 11.397 26.668 30.548
