137

Mg 29.033 29.308 42.304
C 25.635 29.657 42.744
C 28.392 27.568 39.388
H 28.297 27.034 38.465
C 32.349 29.093 41.766
H 33.375 29.014 41.475
C 29.468 30.43  45.472
H 29.695 30.782 46.522
N 27.194 28.704 41.232
C 25.934 29.098 41.507
C 24.908 28.59  40.436
H 24.24  27.893 40.928
C 25.854 27.83  39.421
H 25.757 28.32  38.44 
C 27.235 27.994 40.065
C 25.395 26.331 39.196
H 26.217 25.802 38.668
H 25.188 25.818 40.122
H 24.602 26.23  38.483
C 24.071 29.775 39.828
H 24.852 30.322 39.255
H 23.645 30.25  40.671
C 22.938 29.23  38.932
H 22.907 28.171 39.084
H 22.131 29.718 39.48 
C 23.02  29.625 37.508
O 23.403 30.701 37.078
O 22.671 28.538 36.747
N 30.21  28.401 40.832
C 29.767 27.739 39.732
C 30.925 27.196 38.987
C 32.053 27.666 39.72 
C 31.52  28.483 40.824
C 30.755 26.224 37.762
H 29.797 25.789 37.546
H 31.072 26.827 36.865
H 31.438 25.411 37.842
C 33.438 27.246 39.516
H 34.166 27.344 40.317
C 33.997 26.591 38.449
H 33.461 26.312 37.513
H 35.089 26.396 38.375
N 30.644 29.809 43.427
C 31.968 29.777 42.989
C 32.819 30.247 44.032
C 31.994 30.605 45.114
C 30.627 30.399 44.657
C 34.325 30.052 44.069
H 34.77  30.276 45.023
H 34.666 29.06  43.74 
H 34.791 30.83  43.433
C 32.401 31.035 46.543
H 31.812 30.316 47.163
H 33.466 30.77  46.69 
C 32.285 32.511 46.876
H 32.783 32.665 47.817
H 32.888 33.118 46.187
H 31.241 32.868 46.875
N 27.848 29.999 43.799
C 28.153 30.276 45.116
C 26.975 30.468 45.905
C 25.886 30.254 45.009
C 26.495 29.949 43.758
C 26.919 30.773 47.301
H 25.9   30.743 47.708
H 27.353 30.023 47.938
H 27.341 31.737 47.466
C 24.495 30.235 44.815
O 23.586 30.48  45.619
C 24.251 29.82  43.365
H 23.604 30.615 42.974
C 23.52  28.519 43.417
O 23.93  27.404 43.719
O 22.237 28.765 42.831
C 21.406 27.583 42.807
H 21.975 26.971 42.124
H 21.43  27.107 43.8  
H 20.43  27.661 42.412
C 22.734 28.809 35.306
H 23.796 29.215 35.065
H 21.976 29.522 35.075
C 22.39  27.472 34.656
H 22.966 26.674 34.996
C 21.311 27.109 33.977
C 20.16  28.025 33.483
H 19.314 27.745 34.075
H 20.263 29.121 33.559
H 20.029 27.889 32.409
C 21.376 25.73  33.351
H 22.328 25.689 32.821
H 20.703 25.678 32.559
C 21.287 24.554 34.354
H 20.921 24.884 35.311
H 22.27  24.21  34.664
C 20.433 23.332 33.862
H 21.037 22.457 33.972
H 20.293 23.302 32.788
C 19.177 23.106 34.706
H 19.455 23.135 35.804
C 18.607 21.684 34.403
H 17.733 21.442 35.015
H 18.319 21.667 33.391
H 19.405 20.983 34.569
C 18.13  24.255 34.557
H 18.636 25.204 34.895
H 17.241 24.144 35.235
C 17.566 24.522 33.162
H 18.191 23.898 32.562
H 17.814 25.569 32.931
C 16.075 24.324 33.019
H 15.551 24.12  33.963
H 15.971 23.485 32.314
C 15.16  25.435 32.409
H 15.67  25.65  31.514
C 15.031 26.677 33.356
H 15.974 26.622 33.893
H 15.039 27.627 32.808
H 14.296 26.719 34.073
C 13.745 24.924 31.975
H 13.306 24.355 32.754
H 13.897 24.168 31.203
C 12.81  25.887 31.294
H 12.943 25.777 30.252
H 13.117 26.919 31.441
C 11.327 25.938 31.818
H 11.013 26.949 31.743
H 11.171 25.781 32.894
C 10.252 25.143 30.997
H 10.238 25.662 30.022
C  8.805 25.179 31.67 
H  8.522 26.192 31.876
H  7.936 24.881 31.02 
H  8.787 24.588 32.579
C 10.711 23.709 30.778
H 11.45  23.637 30.081
H 11.097 23.305 31.764
H  9.902 23.085 30.448
