137

Mg 20.625 25.728 38.021
C 19.298 22.669 38.96 
C 20.879 24.549 34.939
H 20.844 24.177 33.902
C 21.799 28.742 37.122
H 22.319 29.659 36.752
C 20.294 26.819 41.365
H 20.117 27.131 42.378
N 20.048 23.795 36.991
C 19.578 22.681 37.583
C 19.415 21.491 36.597
H 20.045 20.721 37.011
C 19.909 22.131 35.269
H 19.044 22.236 34.588
C 20.326 23.574 35.772
C 21.115 21.293 34.688
H 22.032 21.461 35.154
H 20.767 20.295 34.575
H 21.23  21.568 33.645
C 17.919 21.096 36.524
H 17.366 22.004 36.289
H 17.66  20.77  37.526
C 17.593 19.997 35.561
H 18.441 19.419 35.244
H 16.897 19.27  36.031
C 16.846 20.447 34.34 
O 16.187 21.507 34.226
O 16.899 19.519 33.358
N 21.16  26.508 36.298
C 21.144 25.934 35.082
C 21.523 26.868 33.969
C 21.95  28.002 34.668
C 21.693 27.745 36.101
C 21.524 26.557 32.497
H 21.822 27.438 31.855
H 22.288 25.731 32.322
H 20.559 26.263 32.175
C 22.483 29.268 34.135
H 23.213 29.789 34.791
C 22.11  29.828 32.986
H 21.271 29.339 32.395
H 22.558 30.768 32.561
N 21.005 27.475 39.073
C 21.478 28.642 38.475
C 21.67  29.576 39.559
C 21.138 29.029 40.719
C 20.807 27.687 40.43 
C 22.332 30.962 39.383
H 22.568 31.054 38.264
H 21.66  31.691 39.887
H 23.226 30.95  39.936
C 21.234 29.611 42.095
H 21.761 28.865 42.702
H 21.925 30.496 42.036
C 19.842 29.938 42.712
H 19.959 29.845 43.764
H 19.522 31.021 42.531
H 18.99  29.218 42.507
N 19.901 25.026 39.76 
C 19.814 25.481 41.093
C 19.254 24.496 41.98 
C 19.128 23.398 41.201
C 19.498 23.745 39.885
C 19.009 24.783 43.434
H 19.957 25.082 43.881
H 18.379 25.578 43.488
H 18.717 23.888 44.004
C 18.778 22.015 41.215
O 18.465 21.3   42.179
C 18.8   21.562 39.747
H 17.789 21.238 39.52 
C 19.789 20.407 39.881
O 20.965 20.435 40.14 
O 19.141 19.257 39.608
C 20.045 18.086 39.439
H 20.631 17.883 40.368
H 19.485 17.236 39.112
H 20.768 18.301 38.664
C 16.18  19.912 32.128
H 16.755 20.672 31.637
H 15.166 20.248 32.289
C 16.213 18.783 31.101
H 17.265 18.418 30.92 
C 15.192 18.306 30.38 
C 13.789 18.874 30.375
H 13.798 19.872 30.878
H 13.377 19.06  29.373
H 13.113 18.258 30.934
C 15.467 17.308 29.309
H 16.522 17.034 29.201
H 15.218 17.742 28.324
C 14.783 15.911 29.401
H 14.589 15.568 30.401
H 15.389 15.225 28.885
C 13.484 15.724 28.662
H 13.756 15.494 27.582
H 12.997 16.714 28.65 
C 12.413 14.738 29.175
H 13.022 13.819 29.354
C 11.328 14.467 28.115
H 10.595 13.66  28.314
H 10.808 15.508 27.852
H 11.96  14.165 27.242
C 11.819 15.185 30.516
H 12.586 15.134 31.289
H 11.282 14.241 30.791
C 10.989 16.538 30.594
H 11.109 17.128 29.676
H 11.221 17.069 31.539
C  9.465 16.149 30.769
H  9.208 15.669 31.713
H  9.134 15.569 29.88 
C  8.389 17.335 30.778
H  8.743 18.147 30.079
C  8.362 17.926 32.227
H  7.747 18.789 32.289
H  8.055 17.145 32.879
H  9.337 18.389 32.481
C  7.111 17.039 30.099
H  6.644 16.145 30.47 
H  7.36  16.943 29.036
C  6.111 18.202 30.012
H  6.625 19.182 29.865
H  5.499 18.178 30.884
C  5.062 17.937 28.935
H  4.095 17.621 29.447
H  5.497 17.114 28.361
C  4.781 19.081 27.946
H  4.617 20.029 28.54 
C  3.554 18.84  27.139
H  3.575 17.82  26.638
H  2.642 18.774 27.744
H  3.486 19.547 26.346
C  5.973 19.279 26.973
H  5.737 19.934 26.176
H  6.854 19.556 27.527
H  6.208 18.306 26.464
