137

Mg 27.809 31.404 37.114
C 25.334 30.768 39.55 
C 25.318 32.899 35.164
H 24.597 33.365 34.593
C 30.182 32.891 35.126
H 30.985 33.401 34.608
C 30.201 30.213 39.35 
H 31.027 29.811 39.937
N 25.635 31.734 37.356
C 24.885 31.444 38.403
C 23.421 31.755 38.131
H 22.81  30.82  38.235
C 23.408 32.255 36.678
H 23.108 33.273 36.702
C 24.881 32.282 36.306
C 22.486 31.596 35.672
H 22.56  30.543 35.68 
H 21.479 31.885 35.966
H 22.643 32.097 34.695
C 22.737 32.674 39.176
H 23.416 33.451 39.432
H 22.658 32.111 40.078
C 21.272 33.181 38.899
H 20.898 32.771 37.905
H 20.672 32.923 39.743
C 21.044 34.67  38.694
O 21.281 35.425 39.621
O 20.379 35.076 37.567
N 27.752 32.621 35.384
C 26.609 33.102 34.756
C 26.99  33.83  33.596
C 28.404 33.832 33.56 
C 28.846 33.121 34.73 
C 26.072 34.361 32.549
H 26.551 34.553 31.585
H 25.396 33.568 32.333
H 25.493 35.22  32.901
C 29.405 34.488 32.614
H 29.21  35.404 32.111
C 30.542 33.769 32.186
H 30.746 32.676 32.497
H 31.318 34.229 31.559
N 29.822 31.55  37.226
C 30.615 32.123 36.256
C 31.946 32.034 36.713
C 31.972 31.275 37.875
C 30.648 30.95  38.207
C 33.041 32.639 35.914
H 33.977 32.571 36.442
H 33.136 32.064 34.917
H 32.72  33.678 35.826
C 33.182 30.989 38.642
H 33.33  29.974 38.96 
H 34.033 31.332 38.13 
C 33.32  31.785 39.927
H 33.532 32.786 39.521
H 32.421 31.756 40.517
H 34.053 31.379 40.67 
N 27.818 30.6   39.072
C 28.858 30.094 39.756
C 28.317 29.539 41.019
C 26.941 29.684 40.964
C 26.681 30.366 39.77 
C 29.089 29.179 42.219
H 28.821 28.183 42.581
H 30.139 29.066 41.934
H 29.076 30.026 42.937
C 25.638 29.493 41.669
O 25.335 28.999 42.727
C 24.525 30.214 40.714
H 24.095 30.99  41.295
C 23.597 29.041 40.3  
O 23.839 28.116 39.55 
O 22.408 29.124 40.904
C 21.557 28.003 40.714
H 20.604 28.143 41.147
H 21.293 27.781 39.645
H 22.03  27.17  41.133
C 20.054 36.478 37.61 
H 20.989 37.094 37.598
H 19.433 36.863 38.407
C 19.144 36.881 36.458
H 18.194 36.355 36.511
C 19.462 37.697 35.434
C 20.816 38.45  35.126
H 21.1   38.368 34.064
H 20.687 39.507 35.411
H 21.677 38.107 35.667
C 18.448 37.989 34.313
H 17.57  37.317 34.254
H 18.982 37.882 33.313
C 17.861 39.478 34.265
H 18.401 40.022 33.416
H 18.26  39.991 35.205
C 16.339 39.647 34.104
H 15.899 40.399 34.745
H 15.881 38.737 34.395
C 15.934 40.183 32.71 
H 16.403 41.187 32.488
C 14.41  40.659 32.733
H 14.267 41.573 33.286
H 14.063 40.738 31.698
H 13.805 39.859 33.245
C 16.221 39.352 31.417
H 17.271 39.014 31.44 
H 16.135 40.118 30.741
C 15.271 38.162 31.11 
H 14.719 38.426 30.175
H 14.436 38.151 31.813
C 16.018 36.898 31.173
H 15.934 36.545 32.248
H 17.125 36.98  31.179
C 15.776 35.717 30.123
H 14.685 35.52  30.18 
C 16.616 34.482 30.509
H 16.531 33.62  29.862
H 17.684 34.61  30.819
H 16.093 34.147 31.4  
C 16.085 36.216 28.713
H 17.169 36.324 28.739
H 15.555 37.175 28.475
C 15.672 35.254 27.571
H 14.988 35.831 26.897
H 15.174 34.355 28.064
C 16.793 34.706 26.677
H 17.754 34.996 27.153
H 16.729 35.232 25.701
C 16.874 33.235 26.335
H 17.011 32.74  27.314
C 18.193 33.014 25.444
H 18.454 32.053 25.17 
H 18.352 33.628 24.524
H 19.092 33.239 26.053
C 15.67  32.707 25.548
H 15.692 33.213 24.591
H 15.77  31.658 25.322
H 14.769 32.946 26.066
