137

Mg 29.787 28.927 34.466
C 28.658 28.714 37.752
C 26.554 28.794 33.457
H 25.522 28.62  33.194
C 30.701 29.765 31.379
H 31.139 29.937 30.427
C 32.969 29.657 35.651
H 33.96  29.831 36.054
N 27.871 28.833 35.464
C 27.673 28.555 36.778
C 26.257 28.452 37.128
H 26.148 27.611 37.817
C 25.642 28.081 35.734
H 24.692 28.574 35.541
C 26.751 28.601 34.816
C 25.416 26.537 35.529
H 25.293 26.381 34.468
H 26.208 25.954 35.919
H 24.571 26.21  36.128
C 25.703 29.725 37.84 
H 25.866 30.564 37.181
H 26.382 29.866 38.679
C 24.236 29.751 38.345
H 23.799 28.782 38.149
H 24.247 29.902 39.393
C 23.166 30.721 37.86 
O 22.875 31.758 38.469
O 22.587 30.323 36.695
N 28.799 29.178 32.643
C 27.483 29.015 32.463
C 27.165 29.245 31.028
C 28.396 29.534 30.397
C 29.343 29.435 31.465
C 25.765 29.319 30.521
H 25.166 30.099 30.887
H 25.811 29.504 29.448
H 25.201 28.474 30.739
C 28.584 29.984 28.989
H 27.812 30.569 28.505
C 29.644 29.654 28.194
H 30.505 29.077 28.611
H 29.651 29.975 27.162
N 31.55  29.505 33.683
C 31.698 29.807 32.339
C 33.051 30.092 32.078
C 33.758 29.914 33.287
C 32.782 29.689 34.289
C 33.653 30.316 30.665
H 33.207 31.152 30.131
H 34.746 30.462 30.795
H 33.56  29.389 30.062
C 35.247 30.037 33.481
H 35.507 29.345 34.33 
H 35.785 29.694 32.601
C 35.732 31.44  33.96 
H 36.801 31.379 34.077
H 35.62  32.405 33.306
H 35.389 31.624 34.965
N 30.664 29.078 36.242
C 31.934 29.342 36.581
C 32.126 29.021 37.996
C 30.855 28.867 38.497
C 30.007 28.932 37.413
C 33.5   29.085 38.717
H 33.964 30.116 38.784
H 33.38  28.639 39.647
H 34.211 28.522 38.095
C 30.172 28.541 39.751
O 30.634 28.406 40.89 
C 28.672 28.505 39.271
H 28.273 29.277 39.884
C 28.187 27.226 39.787
O 28.228 26.104 39.332
O 27.492 27.482 40.938
C 26.724 26.363 41.514
H 26.227 25.945 40.627
H 27.343 25.635 41.941
H 26.006 26.685 42.197
C 21.333 31.1   36.369
H 21.616 31.973 35.877
H 20.84  31.363 37.267
C 20.486 30.067 35.825
H 19.613 29.975 36.376
C 20.739 29.187 34.873
C 21.956 29.075 33.999
H 21.607 29.01  32.961
H 22.58  29.945 34.123
H 22.388 28.086 34.229
C 19.667 28.125 34.656
H 19.187 27.945 35.64 
H 20.217 27.233 34.44 
C 18.606 28.613 33.634
H 18.583 29.711 33.47 
H 17.602 28.276 33.971
C 18.863 28.042 32.229
H 19.359 27.083 32.328
H 19.547 28.676 31.658
C 17.691 28.136 31.216
H 16.847 27.616 31.649
C 18.062 27.38  29.902
H 17.755 26.38  29.949
H 17.623 27.948 29.079
H 19.159 27.269 29.733
C 17.078 29.536 30.922
H 16.723 29.888 31.924
H 16.214 29.393 30.359
C 17.951 30.501 30.186
H 18.832 29.987 29.846
H 18.309 31.282 30.857
C 17.338 31.247 28.958
H 16.28  31.096 28.682
H 17.83  30.778 28.079
C 17.647 32.74  28.882
H 18.722 32.848 29.002
C 16.787 33.523 29.883
H 15.734 33.463 29.661
H 16.886 33.031 30.843
H 16.999 34.653 29.903
C 17.563 33.209 27.367
H 16.544 33.103 27.043
H 18.169 32.524 26.793
C 17.975 34.685 27.165
H 18.449 34.757 26.126
H 18.723 34.844 27.903
C 16.769 35.739 27.291
H 16.006 35.235 27.816
H 16.351 36.051 26.356
C 17.305 37.066 27.998
H 17.864 36.688 28.832
C 16.06  37.819 28.473
H 15.495 37.083 29.126
H 16.308 38.699 28.956
H 15.495 38.097 27.614
C 18.259 37.839 27.034
H 18.689 38.629 27.592
H 18.988 37.186 26.621
H 17.73  38.196 26.147
