137

Mg 19.778 23.931 29.102
C 22.688 24.165 31.   
C 18.371 26.322 31.151
H 17.959 27.096 31.818
C 16.871 23.536 27.485
H 15.926 23.475 26.939
C 21.106 21.294 27.463
H 21.466 20.322 27.037
N 20.507 25.213 30.792
C 21.764 25.161 31.37 
C 21.871 26.076 32.494
H 21.921 25.34  33.279
C 20.545 26.837 32.57 
H 20.803 27.831 32.241
C 19.712 26.092 31.432
C 19.867 26.803 33.963
H 18.925 27.304 34.083
H 19.7   25.724 34.29 
H 20.487 27.38  34.698
C 23.149 26.991 32.517
H 22.96  27.464 31.608
H 24.024 26.466 32.427
C 23.23  28.054 33.635
H 22.237 28.172 34.06 
H 24.015 27.717 34.381
C 23.818 29.442 33.342
O 25.029 29.685 33.361
O 22.837 30.386 33.18 
N 17.941 24.8   29.254
C 17.554 25.768 30.176
C 16.133 26.129 29.962
C 15.68  25.334 28.898
C 16.837 24.506 28.514
C 15.38  27.256 30.686
H 14.278 27.353 30.335
H 15.481 27.01  31.733
H 15.662 28.303 30.526
C 14.383 25.597 28.174
H 13.491 25.952 28.677
C 14.215 25.392 26.861
H 15.027 25.089 26.211
H 13.241 25.514 26.411
N 19.097 22.635 27.701
C 17.899 22.706 27.081
C 17.814 21.639 26.081
C 19.112 21.072 26.011
C 19.841 21.632 27.084
C 16.575 21.262 25.195
H 16.138 22.22  24.894
H 17.024 20.699 24.38 
H 15.909 20.686 25.836
C 19.641 20.01  25.095
H 20.109 19.181 25.731
H 18.784 19.616 24.527
C 20.538 20.585 24.031
H 20.596 19.856 23.205
H 20.13  21.472 23.648
H 21.53  20.743 24.452
N 21.37  22.909 29.167
C 21.858 21.899 28.392
C 23.141 21.47  28.762
C 23.501 22.271 29.821
C 22.434 23.179 30.003
C 23.976 20.411 28.   
H 25.062 20.428 28.19 
H 23.514 19.416 28.131
H 23.925 20.755 27.007
C 24.59  22.612 30.726
O 25.735 22.203 30.799
C 24.047 23.773 31.579
H 24.798 24.548 31.393
C 24.031 23.463 33.051
O 23.552 22.474 33.658
O 24.608 24.52  33.759
C 24.251 24.437 35.154
H 24.875 23.676 35.705
H 24.608 25.305 35.647
H 23.217 24.354 35.421
C 23.361 31.694 33.09 
H 24.229 31.846 32.379
H 23.859 31.861 34.004
C 22.261 32.691 32.745
H 21.596 32.291 32.07 
C 22.103 33.948 33.174
C 23.048 34.866 33.983
H 23.767 35.406 33.249
H 22.489 35.657 34.496
H 23.662 34.282 34.681
C 20.869 34.606 32.635
H 20.347 33.943 31.974
H 21.313 35.388 32.059
C 19.78  35.017 33.738
H 20.13  34.839 34.796
H 18.956 34.25  33.69 
C 19.255 36.445 33.35 
H 19.876 36.868 32.537
H 19.429 37.17  34.174
C 17.732 36.625 33.168
H 17.222 35.949 33.917
C 17.354 36.097 31.73 
H 18.078 36.379 30.967
H 17.298 34.994 31.784
H 16.358 36.345 31.368
C 17.282 38.159 33.261
H 16.334 38.206 32.821
H 18.012 38.652 32.637
C 17.163 38.808 34.628
H 17.478 37.971 35.321
H 16.132 39.098 34.815
C 18.039 40.105 34.845
H 17.425 41.005 35.136
H 18.538 40.419 33.907
C 19.212 40.098 35.856
H 19.841 39.167 35.726
C 18.629 40.069 37.329
H 19.397 40.077 38.066
H 17.969 40.879 37.608
H 18.029 39.251 37.435
C 20.17  41.36  35.648
H 20.63  41.616 36.565
H 19.52  42.197 35.332
C 21.266 41.135 34.624
H 21.17  40.236 34.092
H 22.22  41.174 35.221
C 21.319 42.202 33.483
H 22.186 42.872 33.66 
H 20.451 42.879 33.481
C 21.482 41.675 32.022
H 20.651 41.042 31.778
C 22.743 40.784 31.744
H 22.831 40.273 30.755
H 23.604 41.443 31.932
H 22.614 39.933 32.438
C 21.45  42.839 31.117
H 22.226 43.538 31.34 
H 21.494 42.607 30.051
H 20.483 43.257 31.432
