137

Mg 29.166 28.917 32.624
C 26.93  26.88  30.974
C 31.187 28.664 29.788
H 31.798 28.814 28.983
C 31.548 30.586 34.264
H 32.295 31.103 34.883
C 27.331 28.517 35.529
H 26.694 28.505 36.408
N 29.041 27.919 30.713
C 27.943 27.341 30.215
C 27.949 27.184 28.63 
H 27.859 26.16  28.417
C 29.461 27.466 28.376
H 29.605 28.232 27.588
C 29.924 28.033 29.684
C 30.343 26.154 28.068
H 29.778 25.227 28.255
H 30.643 26.16  27.027
H 31.313 26.212 28.607
C 26.967 28.242 27.875
H 27.474 29.225 27.893
H 25.996 28.234 28.313
C 26.969 27.98  26.371
H 27.057 28.982 25.817
H 27.746 27.364 26.014
C 25.698 27.485 25.695
O 25.521 27.542 24.495
O 24.829 26.954 26.59 
N 31.016 29.58  32.086
C 31.7   29.374 30.897
C 32.99  30.119 31.033
C 33.07  30.779 32.246
C 31.859 30.341 32.921
C 34.062 30.093 30.008
H 34.775 29.359 30.23 
H 33.636 30.055 29.   
H 34.628 31.055 30.007
C 34.065 31.665 32.859
H 33.802 32.448 33.593
C 35.398 31.629 32.44 
H 35.824 30.861 31.759
H 36.161 32.155 32.977
N 29.398 29.507 34.582
C 30.439 30.21  35.048
C 30.256 30.539 36.456
C 28.996 29.896 36.801
C 28.58  29.26  35.627
C 31.17  31.384 37.447
H 30.536 31.51  38.325
H 31.909 30.625 37.705
H 31.694 32.23  37.097
C 28.233 29.925 38.114
H 27.435 29.207 38.125
H 28.863 29.654 38.993
C 27.479 31.221 38.309
H 27.208 31.496 39.336
H 28.174 31.961 37.922
H 26.569 31.207 37.657
N 27.425 27.876 33.132
C 26.753 27.849 34.369
C 25.488 27.127 34.292
C 25.55  26.742 32.914
C 26.727 27.178 32.341
C 24.529 26.914 35.415
H 23.848 26.044 35.208
H 25.116 26.685 36.272
H 23.863 27.782 35.512
C 24.711 26.112 31.847
O 23.583 25.58  31.795
C 25.67  26.099 30.568
H 25.228 26.625 29.732
C 25.903 24.654 30.363
O 26.683 24.076 31.048
O 25.36  24.039 29.192
C 25.554 22.553 29.268
H 25.283 22.126 30.187
H 25.    22.072 28.389
H 26.612 22.303 29.106
C 23.596 26.429 26.053
H 23.816 25.887 25.131
H 22.965 27.296 25.881
C 22.893 25.633 27.216
H 22.94  26.052 28.216
C 22.197 24.531 27.087
C 22.036 23.781 25.749
H 22.663 24.09  24.951
H 22.213 22.695 25.894
H 21.011 23.967 25.428
C 21.779 23.804 28.412
H 21.986 24.344 29.322
H 22.222 22.836 28.552
C 20.2   23.637 28.27 
H 20.054 22.487 28.256
H 19.889 23.953 27.332
C 19.345 24.314 29.349
H 19.867 25.11  29.838
H 19.091 23.567 30.09 
C 18.103 25.101 28.906
H 18.436 25.979 28.282
C 17.443 25.789 30.193
H 17.285 24.92  30.919
H 18.153 26.545 30.543
H 16.413 26.217 30.1  
C 17.031 24.192 28.15 
H 17.513 23.843 27.244
H 16.274 24.942 27.729
C 16.221 23.132 28.922
H 15.215 22.879 28.593
H 16.18  23.426 29.999
C 16.947 21.76  28.867
H 17.915 21.827 28.363
H 16.313 21.082 28.257
C 17.149 21.086 30.235
H 17.664 21.743 30.931
C 18.044 19.796 30.123
H 18.092 19.26  31.068
H 17.627 19.106 29.396
H 18.967 20.049 29.608
C 15.742 20.709 30.904
H 15.497 19.792 30.318
H 15.056 21.508 30.572
C 15.802 20.289 32.428
H 15.1   20.784 33.061
H 16.835 20.384 32.752
C 15.548 18.778 32.575
H 16.051 18.362 33.477
H 15.976 18.202 31.707
C 14.055 18.259 32.675
H 13.72  18.975 33.412
C 13.91  16.844 33.267
H 14.272 16.084 32.64 
H 14.412 16.822 34.289
H 12.864 16.634 33.452
C 13.116 18.299 31.412
H 13.582 17.594 30.657
H 12.15  17.951 31.694
H 13.165 19.29  31.035
