137

Mg 23.327 25.194 38.01 
C 20.945 22.684 38.43 
C 24.359 23.645 35.192
H 24.734 23.168 34.272
C 25.452 27.69  37.548
H 26.317 28.368 37.446
C 22.386 26.479 41.057
H 22.129 26.866 42.007
N 22.783 23.365 36.941
C 21.622 22.637 37.193
C 21.5   21.475 36.21 
H 21.472 20.555 36.774
C 22.771 21.653 35.311
H 22.555 21.745 34.257
C 23.353 22.987 35.836
C 23.656 20.395 35.419
H 24.043 20.431 36.424
H 23.024 19.449 35.237
H 24.49  20.473 34.742
C 20.171 21.566 35.461
H 20.062 22.563 35.037
H 19.32  21.236 36.127
C 20.085 20.664 34.216
H 20.672 19.747 34.267
H 19.185 20.299 34.48 
C 20.216 21.309 32.847
O 20.387 22.497 32.587
O 19.949 20.357 31.913
N 24.639 25.661 36.563
C 24.999 24.827 35.477
C 26.158 25.394 34.77 
C 26.453 26.6   35.427
C 25.472 26.726 36.53 
C 26.869 24.578 33.64 
H 27.926 24.931 33.539
H 26.868 23.503 33.865
H 26.324 24.648 32.733
C 27.462 27.663 35.069
H 27.942 28.228 35.888
C 27.865 27.901 33.832
H 27.489 27.344 32.956
H 28.686 28.7   33.555
N 23.798 26.813 39.076
C 24.629 27.783 38.697
C 24.604 28.854 39.697
C 23.736 28.529 40.683
C 23.258 27.204 40.326
C 25.432 30.062 39.608
H 25.857 30.199 40.609
H 26.299 29.939 39.003
H 24.828 30.921 39.289
C 23.218 29.36  41.805
H 23.209 28.786 42.706
H 23.89  30.155 42.119
C 21.807 29.91  41.499
H 21.    29.134 41.442
H 21.501 30.729 42.234
H 21.84  30.454 40.545
N 22.052 24.714 39.452
C 21.774 25.228 40.712
C 20.777 24.499 41.427
C 20.414 23.481 40.559
C 21.176 23.614 39.379
C 20.298 24.76  42.853
H 21.085 24.384 43.544
H 20.329 25.838 43.075
H 19.292 24.516 43.157
C 19.506 22.392 40.393
O 18.655 21.92  41.101
C 19.865 21.854 38.982
H 19.013 22.058 38.377
C 20.136 20.4   39.113
O 21.252 19.852 39.319
O 18.982 19.721 38.65 
C 19.241 18.264 38.407
H 19.074 18.092 37.363
H 20.254 17.912 38.614
H 18.519 17.649 38.944
C 19.726 20.87  30.593
H 20.722 21.116 30.181
H 18.996 21.689 30.448
C 19.214 19.706 29.791
H 19.667 18.758 30.108
C 18.288 19.683 28.85 
C 17.476 20.895 28.387
H 16.785 20.659 27.625
H 16.857 21.181 29.238
H 18.191 21.679 27.991
C 17.955 18.408 28.058
H 18.893 17.916 27.809
H 17.549 18.714 27.134
C 17.064 17.381 28.759
H 16.825 17.817 29.729
H 17.624 16.505 28.969
C 15.802 16.992 27.946
H 16.051 16.106 27.319
H 15.72  17.812 27.199
C 14.577 16.87  28.93 
H 14.776 16.12  29.699
C 13.374 16.286 28.156
H 13.542 15.25  27.829
H 12.599 16.118 28.953
H 13.085 16.903 27.269
C 14.085 18.205 29.638
H 14.856 18.543 30.285
H 13.24  17.925 30.283
C 13.767 19.365 28.774
H 13.998 19.064 27.756
H 14.338 20.191 29.115
C 12.27  19.666 28.785
H 11.725 19.255 29.625
H 11.744 19.185 27.921
C 11.713 21.135 28.87 
H 12.254 21.765 28.151
C 12.028 21.745 30.21 
H 11.61  21.119 31.022
H 13.141 21.795 30.338
H 11.725 22.787 30.308
C 10.326 21.443 28.401
H 10.111 22.342 28.906
H  9.768 20.708 28.89 
C 10.157 21.512 26.883
H 11.04  21.112 26.467
H 10.074 22.6   26.607
C  8.907 20.771 26.461
H  8.108 21.504 26.282
H  8.581 20.07  27.164
C  9.066 19.913 25.09 
H  9.429 20.547 24.321
C  7.721 19.487 24.482
H  7.33  18.62  25.045
H  6.961 20.261 24.616
H  7.774 19.169 23.433
C 10.156 18.85  25.149
H 10.026 18.41  24.148
H 11.138 19.247 25.342
H  9.895 18.197 25.935
