137

Mg 28.164 30.132 32.11 
C 26.595 27.341 30.817
C 28.78  31.036 28.789
H 29.028 31.455 27.846
C 29.539 32.914 33.159
H 30.007 33.864 33.428
C 27.432 28.985 35.311
H 27.3   28.585 36.322
N 27.774 29.288 30.127
C 27.091 28.113 29.862
C 27.104 27.741 28.343
H 27.4   26.709 28.248
C 28.162 28.844 27.781
H 27.796 29.457 26.917
C 28.162 29.822 28.915
C 29.479 28.232 27.543
H 29.69  27.617 28.422
H 29.623 27.671 26.588
H 30.196 29.023 27.431
C 25.682 27.917 27.688
H 25.294 28.947 27.732
H 24.929 27.29  28.166
C 25.461 27.34  26.239
H 24.494 27.797 26.015
H 26.203 27.734 25.57 
C 25.434 25.819 26.017
O 26.373 25.1   26.203
O 24.291 25.305 25.517
N 28.955 31.748 31.133
C 29.078 31.922 29.814
C 29.622 33.263 29.533
C 29.811 33.882 30.852
C 29.491 32.864 31.774
C 29.618 34.006 28.255
H 28.694 33.927 27.667
H 29.709 35.081 28.298
H 30.295 33.69  27.58 
C 30.238 35.265 31.315
H 29.822 35.655 32.235
C 31.249 35.91  30.691
H 31.711 35.52  29.794
H 31.542 36.979 30.877
N 28.565 30.795 33.963
C 29.198 31.998 34.198
C 29.31  32.179 35.702
C 28.562 31.117 36.29 
C 28.142 30.216 35.183
C 29.969 33.288 36.381
H 30.541 32.96  37.207
H 30.474 33.96  35.667
H 29.154 33.94  36.784
C 28.201 30.808 37.776
H 27.152 30.363 37.893
H 28.928 30.165 38.266
C 28.169 31.988 38.747
H 29.118 32.533 38.757
H 27.305 32.606 38.59 
H 27.898 31.585 39.75 
N 27.201 28.54  32.967
C 27.097 28.164 34.312
C 26.389 26.878 34.44 
C 26.178 26.562 33.022
C 26.675 27.582 32.211
C 26.06  26.018 35.663
H 26.516 26.444 36.545
H 24.982 26.013 35.714
H 26.326 24.986 35.382
C 25.643 25.498 32.174
O 25.156 24.425 32.48 
C 25.858 25.967 30.745
H 24.857 26.001 30.226
C 26.835 24.997 30.17 
O 28.02  24.823 30.454
O 26.076 24.212 29.295
C 26.829 23.085 28.679
H 27.172 22.327 29.355
H 26.18  22.698 27.905
H 27.665 23.55  28.131
C 24.265 23.89  25.124
H 24.717 23.242 25.871
H 24.843 23.794 24.183
C 22.792 23.577 25.028
H 22.142 24.422 24.673
C 22.216 22.481 25.561
C 22.892 21.265 26.104
H 22.496 20.392 25.655
H 23.945 21.314 25.895
H 22.739 21.146 27.191
C 20.758 22.368 25.451
H 20.371 23.384 25.25 
H 20.476 22.21  26.504
C 20.207 21.36  24.466
H 20.054 20.389 24.987
H 20.795 21.156 23.553
C 18.876 21.802 23.884
H 18.995 22.033 22.861
H 18.424 22.781 24.335
C 17.723 20.668 24.129
H 18.179 19.663 23.986
C 16.667 20.712 22.934
H 16.075 21.695 23.064
H 17.241 20.777 22.062
H 15.981 19.866 22.9  
C 17.059 20.64  25.546
H 17.704 20.115 26.242
H 16.226 19.983 25.468
C 16.46  21.896 26.186
H 15.515 21.651 26.617
H 16.463 22.783 25.579
C 17.221 22.353 27.425
H 17.442 23.359 27.33 
H 18.225 21.952 27.463
C 16.674 22.012 28.855
H 15.72  22.447 28.956
C 17.555 22.577 30.032
H 18.493 21.951 30.277
H 17.91  23.573 29.659
H 17.037 22.612 30.961
C 16.455 20.491 29.057
H 17.466 20.027 29.096
H 16.014 20.04  28.17 
C 15.61  20.103 30.27 
H 14.881 19.436 29.857
H 15.097 21.006 30.645
C 16.417 19.452 31.437
H 17.508 19.438 31.23 
H 16.151 18.381 31.475
C 16.278 20.221 32.783
H 16.573 21.266 32.705
C 17.246 19.717 33.837
H 17.226 20.332 34.705
H 17.062 18.674 34.106
H 18.236 19.814 33.519
C 14.891 20.058 33.418
H 14.82  19.085 33.801
H 14.794 20.81  34.199
H 14.146 20.256 32.651
