137

Mg 36.643 30.837 34.079
C 33.716 29.053 33.872
C 37.365 29.741 30.85 
H 37.626 29.432 29.845
C 39.488 32.656 34.12 
H 40.453 33.163 34.146
C 35.725 32.116 37.122
H 35.641 32.278 38.165
N 35.678 29.414 32.624
C 34.486 28.86  32.747
C 34.153 27.984 31.518
H 34.087 26.974 31.937
C 35.442 28.085 30.665
H 35.284 28.476 29.618
C 36.231 29.167 31.467
C 36.271 26.765 30.551
H 37.155 27.12  30.06 
H 36.458 26.29  31.55 
H 35.816 26.002 29.887
C 32.873 28.344 30.756
H 32.958 29.293 30.369
H 32.101 28.38  31.446
C 32.635 27.326 29.629
H 33.141 27.793 28.763
H 33.093 26.372 29.892
C 31.227 27.065 29.176
O 30.758 25.947 29.378
O 30.563 28.125 28.595
N 38.174 31.155 32.714
C 38.345 30.577 31.452
C 39.651 30.927 30.9  
C 40.333 31.611 31.914
C 39.307 31.818 33.001
C 40.051 30.728 29.502
H 40.679 29.854 29.291
H 39.184 30.601 28.846
H 40.653 31.565 29.128
C 41.754 32.196 31.906
H 42.177 32.474 30.97 
C 42.516 32.383 33.023
H 42.175 32.1   33.976
H 43.518 32.86  33.053
N 37.403 32.273 35.337
C 38.632 32.806 35.207
C 38.926 33.692 36.389
C 37.729 33.62  37.173
C 36.884 32.615 36.592
C 40.226 34.477 36.6  
H 40.353 35.156 35.74 
H 40.202 34.977 37.546
H 41.078 33.825 36.645
C 37.45  34.409 38.529
H 37.23  33.648 39.296
H 38.231 35.021 38.881
C 36.407 35.463 38.483
H 36.427 35.872 39.473
H 36.549 36.135 37.656
H 35.483 34.94  38.245
N 35.108 30.674 35.252
C 34.827 31.221 36.517
C 33.55  30.637 37.067
C 33.119 29.889 36.027
C 34.047 29.869 34.979
C 32.998 30.919 38.444
H 33.677 30.498 39.162
H 32.978 32.054 38.679
H 31.963 30.622 38.524
C 31.999 29.144 35.562
O 30.879 28.906 36.029
C 32.355 28.603 34.098
H 31.517 29.009 33.533
C 32.31  27.136 34.37 
O 32.911 26.497 35.263
O 31.796 26.519 33.222
C 31.744 25.014 33.286
H 30.955 24.491 32.741
H 32.741 24.663 32.97 
H 31.587 24.629 34.259
C 29.225 27.767 28.169
H 28.674 27.217 28.964
H 29.162 27.121 27.253
C 28.573 29.07  27.66 
H 28.864 29.283 26.639
C 27.595 29.85  28.155
C 27.    29.59  29.532
H 25.949 29.371 29.408
H 27.539 28.813 30.068
H 27.112 30.499 30.052
C 27.03  30.978 27.342
H 27.674 31.084 26.45 
H 27.147 31.913 27.949
C 25.597 30.665 26.824
H 25.251 29.692 27.17 
H 25.425 30.783 25.722
C 24.538 31.635 27.402
H 24.867 32.246 28.198
H 23.778 31.165 27.943
C 23.854 32.638 26.439
H 23.275 32.025 25.68 
C 24.792 33.662 25.719
H 25.495 34.04  26.387
H 25.172 33.194 24.838
H 24.251 34.6   25.514
C 22.639 33.403 27.169
H 22.146 33.974 26.368
H 23.164 34.215 27.76 
C 21.558 32.701 28.061
H 21.809 31.652 28.222
H 20.588 32.765 27.496
C 21.344 33.196 29.444
H 20.383 33.661 29.356
H 21.988 34.059 29.598
C 21.342 32.26  30.726
H 22.394 31.807 30.66 
C 20.445 31.002 30.717
H 20.695 30.454 29.681
H 20.65  30.288 31.506
H 19.398 31.284 30.813
C 21.227 32.997 32.147
H 21.255 32.283 32.937
H 20.223 33.275 32.221
C 22.186 34.107 32.422
H 21.561 34.97  32.231
H 22.988 34.027 31.633
C 22.86  34.119 33.759
H 22.355 33.337 34.46 
H 22.604 35.09  34.208
C 24.396 33.763 33.703
H 24.964 34.473 33.085
C 24.566 32.313 33.28 
H 25.562 31.98  33.165
H 24.053 31.699 34.015
H 23.974 32.252 32.415
C 25.204 34.015 35.016
H 25.014 33.291 35.822
H 26.348 33.998 34.851
H 24.804 34.974 35.333
