137

Mg 36.215 27.475 34.647
C 32.892 27.534 35.336
C 35.657 25.767 31.808
H 35.354 25.154 30.919
C 39.355 28.201 33.522
H 40.303 28.592 33.259
C 36.815 29.053 37.584
H 36.878 29.485 38.556
N 34.47  26.761 33.72 
C 33.235 26.967 34.158
C 32.223 26.297 33.221
H 31.557 25.548 33.679
C 33.143 25.644 32.128
H 32.872 26.314 31.315
C 34.546 26.028 32.585
C 32.846 24.155 31.8  
H 33.245 23.865 30.845
H 33.215 23.413 32.538
H 31.777 23.92  31.736
C 31.25  27.367 32.598
H 31.747 28.032 31.94 
H 30.761 27.874 33.471
C 30.12  26.759 31.783
H 30.205 26.733 30.722
H 29.991 25.68  31.955
C 28.737 27.448 31.808
O 27.813 27.199 32.553
O 28.759 28.454 30.904
N 37.326 27.023 32.972
C 36.942 26.215 31.975
C 38.04  26.042 31.023
C 39.142 26.779 31.447
C 38.625 27.331 32.722
C 37.954 25.118 29.739
H 38.295 24.083 29.959
H 36.958 24.987 29.366
H 38.514 25.582 28.923
C 40.509 26.945 31.047
H 41.136 27.745 31.437
C 41.072 26.031 30.211
H 40.578 25.1   29.834
H 42.167 26.134 29.847
N 37.794 28.453 35.406
C 39.03  28.686 34.779
C 39.949 29.336 35.685
C 39.245 29.45  36.862
C 37.885 28.953 36.704
C 41.362 29.805 35.419
H 42.062 29.98  36.247
H 41.762 29.146 34.731
H 41.256 30.789 34.912
C 39.773 30.044 38.149
H 39.29  29.501 38.934
H 40.854 29.899 38.185
C 39.324 31.523 38.338
H 39.692 31.886 39.283
H 39.707 32.058 37.448
H 38.191 31.563 38.333
N 35.123 28.195 36.129
C 35.465 28.727 37.331
C 34.387 29.021 38.221
C 33.274 28.532 37.425
C 33.807 28.084 36.209
C 34.346 29.6   39.658
H 34.95  30.552 39.695
H 33.274 29.8   39.841
H 34.763 28.967 40.447
C 31.826 28.298 37.408
O 31.008 28.542 38.238
C 31.501 27.692 35.993
H 31.008 28.487 35.51 
C 30.69  26.481 36.252
O 30.875 25.555 37.023
O 29.57  26.589 35.478
C 28.45  25.622 35.773
H 28.162 25.158 34.858
H 28.686 24.78  36.4  
H 27.517 26.154 36.128
C 27.602 29.324 30.672
H 27.52  29.917 31.633
H 26.745 28.718 30.488
C 27.917 30.265 29.526
H 28.584 29.745 28.828
C 27.638 31.577 29.333
C 26.79  32.324 30.366
H 26.053 33.037 29.951
H 26.271 31.662 31.051
H 27.619 32.866 30.928
C 28.158 32.336 28.085
H 28.621 31.585 27.481
H 28.899 33.079 28.359
C 26.931 33.115 27.354
H 27.054 34.161 27.415
H 25.958 32.883 27.786
C 27.02  32.982 25.872
H 27.943 32.407 25.546
H 26.956 34.025 25.451
C 25.931 32.039 25.27 
H 24.966 32.167 25.77 
C 26.154 30.515 25.679
H 25.586 29.898 25.051
H 27.188 30.323 25.532
H 25.963 30.293 26.716
C 25.748 32.204 23.62 
H 25.04  31.489 23.178
H 26.733 32.221 23.055
C 25.182 33.491 23.183
H 25.914 34.315 23.31 
H 24.356 33.851 23.767
C 24.697 33.499 21.709
H 23.621 33.528 21.621
H 24.946 32.508 21.263
C 25.341 34.638 20.84 
H 26.386 34.565 21.157
C 24.585 35.878 21.259
H 25.105 36.785 20.767
H 23.582 35.827 20.724
H 24.571 36.066 22.387
C 25.237 34.431 19.354
H 25.522 35.285 18.76 
H 24.19  34.226 19.019
C 26.081 33.253 18.84 
H 25.409 32.451 18.583
H 26.722 32.769 19.632
C 27.042 33.561 17.613
H 28.062 33.917 17.95 
H 26.614 34.411 17.07 
C 27.294 32.447 16.566
H 26.295 32.047 16.351
C 28.225 31.327 17.093
H 28.336 30.671 16.277
H 29.186 31.695 17.409
H 27.792 30.752 17.883
C 27.885 32.946 15.231
H 28.005 32.038 14.707
H 27.202 33.639 14.805
H 28.875 33.437 15.4  
