137

Mg 18.436 24.367 29.389
C 21.533 24.931 30.861
C 17.31 27.3  30.86
H 16.913 28.192 31.292
C 15.393 23.592 28.196
H 14.471 23.483 27.663
C 19.516 21.174 28.475
H 19.932 20.261 28.079
N 19.375 26.048 30.507
C 20.667 26.046 30.945
C 20.967 27.381 31.758
H 21.329 27.009 32.767
C 19.57  28.119 31.809
H 19.643 29.013 31.282
C 18.679 27.107 31.066
C 19.045 28.543 33.227
H 18.073 29.009 33.309
H 19.053 27.792 33.979
H 19.723 29.362 33.563
C 21.99  28.264 30.982
H 21.651 28.443 29.957
H 22.81  27.544 30.891
C 22.573 29.606 31.583
H 21.858 29.874 32.317
H 23.582 29.419 31.983
C 22.79  30.826 30.574
O 22.619 30.772 29.331
O 23.384 31.958 31.114
N 16.591 25.208 29.537
C 16.343 26.4   30.197
C 14.95  26.771 29.964
C 14.425 25.813 29.088
C 15.47  24.806 28.927
C 14.264 27.988 30.519
H 14.744 28.23  31.464
H 14.407 28.856 29.924
H 13.208 27.82  30.756
C 13.134 25.842 28.449
H 12.298 26.127 29.13 
C 12.798 25.513 27.162
H 13.546 25.257 26.367
H 11.755 25.489 26.91 
N 17.602 22.698 28.487
C 16.306 22.592 27.999
C 16.194 21.384 27.174
C 17.398 20.654 27.349
C 18.223 21.487 28.15 
C 14.917 20.94  26.559
H 14.97  20.995 25.496
H 14.946 19.829 26.805
H 14.035 21.467 26.988
C 17.784 19.283 26.877
H 18.349 18.773 27.565
H 16.902 18.652 26.741
C 18.667 19.291 25.584
H 18.22  19.91  24.784
H 19.591 19.749 25.721
H 18.906 18.353 25.106
N 20.084 23.268 29.628
C 20.383 21.935 29.235
C 21.753 21.633 29.648
C 22.254 22.811 30.186
C 21.208 23.773 30.161
C 22.418 20.4   29.517
H 23.434 20.691 29.642
H 21.909 19.653 30.203
H 22.246 20.119 28.493
C 23.393 23.382 30.829
O 24.467 22.835 30.98 
C 23.028 24.766 31.253
H 23.637 25.419 30.723
C 23.243 24.839 32.677
O 22.831 24.057 33.522
O 24.046 25.932 32.959
C 24.163 26.34  34.391
H 24.217 27.443 34.284
H 23.23  26.106 34.889
H 25.109 25.958 34.807
C 23.729 33.073 30.239
H 24.301 32.722 29.299
H 24.514 33.678 30.735
C 22.447 33.745 29.625
H 22.153 33.312 28.619
C 21.758 34.766 30.044
C 22.08  35.651 31.27 
H 21.343 35.503 32.02 
H 23.09  35.434 31.621
H 22.095 36.71  30.897
C 20.562 35.136 29.295
H 20.519 34.599 28.312
H 20.872 36.124 29.135
C 19.197 34.967 29.951
H 19.421 34.211 30.731
H 18.482 34.466 29.31 
C 18.662 36.297 30.486
H 17.804 36.607 29.898
H 19.321 37.128 30.292
C 18.291 36.206 32.005
H 19.091 35.671 32.552
C 17.068 35.34  32.248
H 16.209 35.738 31.804
H 17.228 34.406 31.766
H 16.885 35.058 33.278
C 18.11  37.597 32.657
H 17.557 37.621 33.618
H 17.581 38.185 31.908
C 19.467 38.299 32.959
H 20.042 38.254 32.019
H 20.073 37.823 33.691
C 19.283 39.784 33.324
H 19.567 39.84  34.358
H 18.295 40.201 33.333
C 20.249 40.786 32.626
H 21.226 40.376 32.667
C 20.371 42.134 33.469
H 19.455 42.678 33.621
H 20.728 42.036 34.515
H 21.142 42.72  32.959
C 19.662 41.104 31.195
H 18.718 41.662 31.348
H 19.366 40.186 30.69 
C 20.561 41.918 30.221
H 21.571 42.008 30.643
H 20.292 42.985 30.041
C 20.977 41.24  28.921
H 21.54  41.892 28.325
H 20.056 40.964 28.338
C 21.822 39.958 29.011
H 21.61  39.421 29.942
C 23.345 40.401 29.078
H 24.025 39.577 29.329
H 23.642 40.724 28.027
H 23.461 41.159 29.873
C 21.652 38.884 27.911
H 21.724 39.311 26.899
H 22.525 38.209 27.999
H 20.752 38.264 27.956
