137

Mg 24.29  27.735 41.619
C 22.472 25.09  40.667
C 26.255 27.323 38.715
H 26.907 27.258 37.816
C 25.954 30.538 42.375
H 26.5   31.437 42.686
C 22.472 27.946 44.635
H 22.085 27.877 45.655
N 24.384 26.382 39.944
C 23.468 25.347 39.753
C 23.93  24.506 38.611
H 24.198 23.465 38.891
C 25.232 25.18  38.098
H 25.07  25.574 37.122
C 25.354 26.353 39.006
C 26.51  24.398 38.084
H 26.833 24.064 39.099
H 26.287 23.418 37.547
H 27.227 24.97  37.531
C 22.843 24.259 37.51 
H 22.509 25.183 37.086
H 21.965 23.765 37.828
C 23.309 23.28  36.436
H 24.092 22.599 36.729
H 22.38  22.629 36.348
C 23.544 23.841 35.081
O 24.575 24.335 34.641
O 22.323 23.913 34.452
N 25.894 28.752 40.639
C 26.502 28.416 39.467
C 27.527 29.448 39.209
C 27.444 30.397 40.247
C 26.403 29.919 41.156
C 28.54  29.365 38.141
H 28.251 28.885 37.25 
H 28.918 30.384 37.966
H 29.407 28.839 38.631
C 28.372 31.494 40.58 
H 29.485 31.344 40.66 
C 27.876 32.72  40.839
H 26.784 32.866 40.817
H 28.518 33.634 41.116
N 24.207 29.092 43.219
C 25.011 30.159 43.334
C 24.593 30.908 44.533
C 23.716 30.115 45.225
C 23.443 28.909 44.394
C 25.182 32.235 44.835
H 24.669 32.706 45.695
H 26.271 32.129 45.01 
H 25.192 32.916 43.984
C 23.273 30.439 46.605
H 23.65  29.738 47.381
H 23.741 31.349 46.962
C 21.705 30.533 46.728
H 21.313 31.226 45.924
H 21.253 29.534 46.769
H 21.395 31.005 47.665
N 22.823 26.733 42.533
C 22.147 26.914 43.735
C 20.968 26.019 43.84 
C 21.101 25.231 42.602
C 22.241 25.725 41.92 
C 20.15  25.77  45.051
H 19.66  24.861 44.748
H 20.897 25.482 45.779
H 19.375 26.502 45.401
C 20.625 24.062 41.888
O 19.792 23.219 42.252
C 21.444 23.913 40.56 
H 20.818 24.076 39.715
C 21.898 22.513 40.645
O 22.775 22.199 41.37 
O 21.226 21.7   39.76 
C 21.627 20.28  39.776
H 20.886 19.902 39.132
H 22.669 20.186 39.482
H 21.423 19.843 40.755
C 22.394 24.858 33.391
H 23.062 24.564 32.635
H 22.534 25.88  33.786
C 21.078 24.717 32.695
H 20.515 23.798 32.952
C 20.549 25.587 31.853
C 21.247 26.881 31.419
H 21.43  26.962 30.367
H 20.688 27.715 31.779
H 22.269 26.911 31.827
C 19.303 25.245 31.032
H 19.214 24.149 30.921
H 19.375 25.654 30.033
C 17.978 25.844 31.646
H 17.285 26.254 30.927
H 18.217 26.57  32.398
C 17.119 24.802 32.305
H 17.67  23.873 32.367
H 16.299 24.621 31.593
C 16.524 25.269 33.71 
H 17.295 25.554 34.454
C 15.747 24.203 34.408
H 15.356 24.465 35.401
H 14.86  23.919 33.853
H 16.365 23.307 34.518
C 15.68  26.551 33.497
H 16.338 27.291 33.002
H 15.422 26.954 34.449
C 14.34  26.372 32.797
H 13.595 26.566 33.576
H 14.124 25.402 32.376
C 14.156 27.34  31.644
H 15.132 27.802 31.35 
H 13.351 28.    31.866
C 13.735 26.591 30.281
H 14.424 25.716 30.239
C 13.965 27.526 29.   
H 13.441 28.524 29.081
H 15.061 27.634 28.791
H 13.483 26.903 28.174
C 12.243 25.992 30.332
H 11.611 26.636 29.718
H 11.903 25.941 31.36 
C 12.008 24.639 29.702
H 12.741 24.422 28.901
H 11.04  24.654 29.271
C 12.109 23.463 30.65 
H 11.126 23.01  30.866
H 12.491 23.918 31.578
C 13.187 22.412 30.227
H 14.063 22.938 29.869
C 12.744 21.579 28.989
H 12.382 22.205 28.203
H 13.451 20.8   28.699
H 11.792 21.057 29.212
C 13.633 21.299 31.297
H 14.539 20.747 30.971
H 13.895 21.764 32.218
H 12.742 20.639 31.421
