137

Mg 21.229 32.107 32.054
C 20.699 28.698 32.595
C 17.857 32.655 32.79 
H 16.813 32.878 32.987
C 21.673 35.292 31.702
H 21.771 36.4   31.583
C 24.531 31.474 31.333
H 25.571 31.223 30.99 
N 19.431 30.83  32.543
C 19.47  29.433 32.725
C 18.143 28.908 33.283
H 17.907 28.009 32.813
C 17.24  30.143 33.071
H 16.617 30.287 33.922
C 18.222 31.306 32.826
C 16.285 29.859 31.923
H 16.795 29.472 31.036
H 15.519 29.107 32.273
H 15.816 30.82  31.718
C 18.347 28.489 34.756
H 18.637 29.309 35.45 
H 19.188 27.86  34.799
C 17.162 27.677 35.343
H 16.337 27.496 34.659
H 17.387 26.679 35.521
C 16.435 28.208 36.503
O 16.605 27.874 37.685
O 15.508 29.125 36.068
N 19.991 33.719 32.147
C 18.686 33.752 32.481
C 18.197 35.119 32.342
C 19.35  35.906 32.354
C 20.432 34.995 32.109
C 16.703 35.494 32.471
H 16.504 35.827 33.529
H 16.548 36.213 31.616
H 15.941 34.732 32.252
C 19.41  37.369 32.558
H 20.152 37.842 32.077
C 18.492 38.179 33.199
H 17.559 37.837 33.715
H 18.575 39.26  33.313
N 22.801 33.179 31.573
C 22.746 34.489 31.376
C 24.038 34.925 31.017
C 24.814 33.798 30.77 
C 24.025 32.732 31.223
C 24.411 36.406 30.874
H 23.707 36.818 30.188
H 24.096 36.882 31.866
H 25.448 36.608 30.662
C 26.211 33.881 30.259
H 26.28  33.175 29.402
H 26.419 34.869 29.807
C 27.221 33.562 31.285
H 27.165 34.404 32.015
H 27.023 32.58  31.732
H 28.174 33.435 30.794
N 22.399 30.551 32.129
C 23.768 30.407 31.784
C 24.162 28.967 31.844
C 22.953 28.305 32.11 
C 21.965 29.264 32.311
C 25.556 28.363 31.751
H 26.233 28.917 32.374
H 25.603 27.37  31.973
H 25.898 28.48  30.694
C 22.438 26.99  32.321
O 22.988 25.886 32.328
C 20.93  27.198 32.694
H 20.816 26.964 33.752
C 20.27  26.269 31.753
O 20.301 26.277 30.51 
O 19.309 25.598 32.491
C 18.205 24.962 31.768
H 17.326 24.734 32.309
H 18.004 25.54  30.852
H 18.531 24.045 31.342
C 14.821 29.714 37.203
H 15.566 30.022 38.014
H 14.049 29.035 37.633
C 14.257 30.907 36.543
H 13.424 30.552 35.937
C 14.622 32.214 36.591
C 15.878 32.85  37.142
H 16.388 32.316 37.936
H 16.625 32.959 36.392
H 15.627 33.873 37.476
C 13.696 33.155 35.888
H 13.675 32.8   34.91 
H 14.128 34.137 35.762
C 12.236 33.276 36.415
H 12.094 34.325 36.649
H 12.168 32.637 37.334
C 11.135 32.935 35.299
H 10.953 31.887 35.337
H 11.432 33.236 34.279
C  9.682 33.571 35.449
H  9.387 33.33  36.46 
C  8.683 32.954 34.48 
H  7.81  33.583 34.648
H  9.004 33.018 33.433
H  8.488 31.941 34.784
C  9.523 35.17  35.346
H 10.162 35.61  36.128
H  8.548 35.479 35.586
C  9.951 35.794 33.972
H  9.195 36.509 33.777
H 10.01  35.168 33.087
C 11.309 36.596 34.108
H 11.908 36.408 34.974
H 10.96  37.644 34.232
C 12.299 36.741 32.871
H 11.678 36.826 31.987
C 13.138 35.438 32.688
H 13.845 35.352 33.51 
H 12.551 34.548 32.726
H 13.809 35.379 31.813
C 13.333 37.933 33.027
H 14.175 37.747 32.362
H 13.717 38.032 34.045
C 12.784 39.305 32.491
H 11.874 39.12  31.944
H 13.537 39.889 31.913
C 12.416 40.154 33.678
H 12.23  39.495 34.502
H 11.408 40.605 33.508
C 13.382 41.291 34.121
H 13.77  41.767 33.232
C 14.723 40.863 34.618
H 15.122 40.164 33.881
H 15.395 41.691 34.804
H 14.523 40.344 35.524
C 12.652 42.227 35.125
H 13.34  43.015 35.414
H 11.73  42.647 34.738
H 12.342 41.732 36.108
