137

Mg 29.807 28.737 40.231
C 26.581 28.339 41.321
C 28.775 27.641 37.036
H 28.498 27.4   36.028
C 32.858 29.045 39.206
H 33.918 29.103 38.916
C 30.712 29.583 43.543
H 31.004 29.779 44.534
N 27.848 28.248 39.226
C 26.704 28.14  39.95 
C 25.499 27.801 38.988
H 24.973 26.889 39.411
C 26.2   27.389 37.659
H 25.953 27.994 36.719
C 27.705 27.72  37.981
C 25.982 25.913 37.242
H 26.591 25.688 36.435
H 25.989 25.357 38.169
H 24.959 25.938 36.888
C 24.446 29.01  38.824
H 24.752 29.668 38.015
H 24.38  29.632 39.686
C 23.029 28.467 38.616
H 23.07  27.386 38.67 
H 22.408 29.004 39.361
C 22.348 28.787 37.296
O 21.658 29.76  36.94 
O 22.759 27.754 36.45 
N 30.704 28.463 38.391
C 30.107 27.994 37.192
C 31.204 27.768 36.219
C 32.349 28.216 36.869
C 32.013 28.589 38.207
C 31.023 27.294 34.708
H 30.778 28.079 34.035
H 31.894 26.708 34.44 
H 30.205 26.514 34.685
C 33.721 28.107 36.454
H 34.471 27.654 37.178
C 34.228 28.349 35.254
H 33.567 28.776 34.503
H 35.244 28.104 34.884
N 31.461 29.351 41.145
C 32.668 29.4   40.517
C 33.755 29.833 41.461
C 33.033 30.132 42.63 
C 31.628 29.692 42.458
C 35.267 30.104 41.104
H 35.347 30.46  40.069
H 35.742 30.827 41.773
H 35.845 29.162 41.219
C 33.698 30.581 43.908
H 33.584 29.694 44.53 
H 34.796 30.654 43.815
C 33.362 31.909 44.462
H 32.612 31.948 45.241
H 34.247 32.49  44.595
H 32.935 32.49  43.626
N 28.844 28.88  42.128
C 29.346 29.153 43.374
C 28.282 29.066 44.358
C 27.163 28.726 43.616
C 27.551 28.7   42.243
C 28.45  29.225 45.772
H 27.617 28.75  46.226
H 29.398 28.8   46.147
H 28.449 30.303 45.991
C 25.768 28.376 43.66 
O 24.922 28.368 44.569
C 25.351 28.15  42.171
H 24.668 28.934 41.915
C 24.632 26.72  42.202
O 25.212 25.685 42.472
O 23.371 26.803 41.702
C 22.686 25.513 41.4  
H 21.706 25.773 41.034
H 23.234 24.942 40.62 
H 22.543 24.927 42.289
C 22.433 28.031 35.04 
H 23.318 28.552 34.675
H 21.466 28.495 34.858
C 22.367 26.591 34.495
H 23.19  25.915 34.634
C 21.343 26.165 33.75 
C 20.028 26.92  33.398
H 19.81  26.64  32.375
H 19.3   26.346 33.944
H 19.994 28.002 33.437
C 21.517 24.762 33.161
H 22.552 24.379 33.264
H 21.406 24.753 32.101
C 20.612 23.75  33.93 
H 20.085 24.267 34.782
H 21.328 23.045 34.315
C 19.653 23.064 32.867
H 20.162 22.132 32.641
H 19.607 23.696 32.009
C 18.227 22.581 33.347
H 18.346 21.851 34.163
C 17.579 21.751 32.244
H 16.469 21.857 32.258
H 17.891 22.25  31.343
H 17.7   20.675 32.146
C 17.221 23.714 33.755
H 17.743 24.353 34.447
H 16.328 23.26  34.051
C 16.891 24.801 32.713
H 17.486 24.671 31.815
H 17.116 25.852 33.093
C 15.444 24.803 32.143
H 14.882 23.95  32.495
H 15.487 24.789 31.052
C 14.597 26.135 32.286
H 15.174 26.929 31.836
C 14.351 26.42  33.808
H 13.95  25.492 34.199
H 15.278 26.605 34.246
H 13.689 27.237 33.897
C 13.302 26.09  31.412
H 12.657 25.31  31.877
H 13.587 25.748 30.428
C 12.609 27.47  31.195
H 12.512 27.711 30.149
H 13.278 28.297 31.659
C 11.372 27.602 32.116
H 11.378 26.983 32.988
H 10.449 27.491 31.429
C 11.079 29.03  32.732
H 11.879 29.3   33.383
C  9.739 29.144 33.45 
H  9.597 28.205 33.931
H  9.893 29.89  34.191
H  8.901 29.556 32.935
C 11.169 30.16  31.76 
H 12.017 30.349 31.138
H 10.297 30.155 31.144
H 11.048 31.105 32.221
