137

Mg 20.547 17.09  24.991
C 23.278 16.451 22.881
C 22.672 18.976 26.971
H 23.284 19.618 27.516
C 18.145 17.248 27.196
H 17.386 17.367 27.913
C 18.689 14.846 23.081
H 18.036 14.274 22.389
N 22.772 17.646 24.921
C 23.676 17.251 23.951
C 24.969 17.941 24.234
H 25.728 17.167 24.318
C 24.782 18.663 25.58 
H 24.838 19.701 25.452
C 23.343 18.439 25.915
C 25.798 18.09  26.562
H 25.333 17.163 26.846
H 26.77  17.929 26.089
H 25.98  18.653 27.467
C 25.559 18.804 23.041
H 24.896 19.655 22.927
H 25.489 18.364 22.016
C 26.996 19.331 23.292
H 27.438 18.719 24.076
H 27.522 19.152 22.348
C 27.258 20.849 23.542
O 28.307 21.401 23.257
O 26.168 21.412 23.951
N 20.441 17.97  26.818
C 21.321 18.778 27.429
C 20.785 19.414 28.624
C 19.504 18.917 28.705
C 19.321 17.989 27.578
C 21.528 20.383 29.467
H 22.074 21.086 28.837
H 20.985 20.981 30.153
H 22.288 19.935 30.088
C 18.449 19.152 29.705
H 17.428 18.92  29.366
C 18.66  19.563 30.953
H 19.635 19.57  31.414
H 17.872 19.79  31.668
N 18.727 16.291 25.067
C 17.864 16.439 26.096
C 16.607 15.669 25.89 
C 16.786 15.005 24.663
C 18.103 15.353 24.202
C 15.451 15.47  26.923
H 15.618 14.692 27.539
H 15.354 16.321 27.591
H 14.518 15.412 26.477
C 15.769 14.081 24.029
H 16.226 13.381 23.389
H 15.374 13.519 24.816
C 14.678 14.816 23.198
H 14.177 15.498 23.826
H 15.311 15.297 22.361
H 13.977 14.166 22.698
N 20.772 15.949 23.418
C 19.965 15.132 22.724
C 20.651 14.542 21.564
C 21.959 15.012 21.615
C 21.994 15.87  22.732
C 20.123 13.658 20.547
H 20.808 13.301 19.743
H 19.674 12.727 21.063
H 19.335 14.168 20.007
C 23.287 15.001 20.908
O 23.764 14.36  19.967
C 24.118 15.969 21.728
H 24.495 16.738 21.12 
C 25.321 15.266 22.13 
O 25.323 14.329 22.97 
O 26.533 15.8   21.636
C 27.727 14.918 22.018
H 27.521 13.839 22.017
H 28.443 15.167 21.245
H 28.209 15.181 22.96 
C 26.18  22.836 24.219
H 26.451 23.427 23.348
H 26.883 23.047 24.968
C 24.776 23.293 24.606
H 24.066 23.628 23.83 
C 24.268 23.428 25.835
C 24.906 23.003 27.127
H 24.407 22.078 27.503
H 25.923 22.74  26.846
H 24.802 23.774 27.895
C 22.888 24.116 25.847
H 22.26  23.294 26.177
H 22.585 24.266 24.852
C 22.75  25.463 26.61 
H 23.565 26.058 26.175
H 23.001 25.393 27.67 
C 21.367 26.012 26.408
H 20.829 25.729 27.323
H 20.766 25.404 25.743
C 21.203 27.533 26.09 
H 21.846 27.683 25.209
C 21.789 28.515 27.079
H 21.392 29.508 27.02 
H 21.59  28.093 28.124
H 22.856 28.523 26.848
C 19.718 27.886 25.694
H 19.615 29.007 25.836
H 19.033 27.394 26.311
C 19.307 27.474 24.232
H 18.267 27.33  24.192
H 19.726 26.545 23.945
C 19.827 28.58  23.21 
H 20.357 28.047 22.474
H 20.437 29.198 23.841
C 18.723 29.335 22.384
H 18.061 28.579 22.157
C 19.372 29.885 21.087
H 18.604 29.741 20.294
H 19.455 30.988 21.271
H 20.348 29.417 20.726
C 17.775 30.275 23.297
H 18.399 31.112 23.503
H 17.73  29.719 24.193
C 16.452 30.782 22.698
H 16.149 30.149 21.845
H 16.621 31.736 22.371
C 15.204 30.839 23.71 
H 15.641 30.545 24.747
H 14.498 30.065 23.536
C 14.341 32.128 23.583
H 14.846 33.045 23.854
C 13.358 32.164 24.772
H 13.837 31.916 25.701
H 12.753 33.053 24.831
H 12.664 31.363 24.691
C 13.592 32.306 22.273
H 14.222 32.161 21.441
H 12.826 31.577 22.254
H 13.18  33.311 22.314
