137

Mg 19.139 27.442 29.667
C 21.511 26.016 31.686
C 17.783 28.859 32.348
H 17.138 29.129 33.232
C 16.769 28.634 27.639
H 15.941 28.898 26.996
C 20.606 25.93  26.952
H 21.046 25.401 26.101
N 19.656 27.534 31.738
C 20.654 26.812 32.327
C 20.638 26.934 33.896
H 20.594 25.897 34.237
C 19.313 27.701 34.15 
H 19.444 28.655 34.652
C 18.844 28.042 32.669
C 18.3   26.98  35.096
H 17.919 26.096 34.627
H 18.863 26.671 35.981
H 17.415 27.653 35.213
C 21.879 27.605 34.55 
H 21.627 28.709 34.529
H 22.687 27.391 33.888
C 22.041 27.126 36.023
H 21.457 26.292 36.418
H 23.063 26.828 36.159
C 21.752 28.118 37.119
O 22.627 28.527 37.902
O 20.452 28.483 37.189
N 17.545 28.548 29.951
C 17.192 29.189 31.104
C 15.982 29.985 30.8  
C 15.65  29.868 29.439
C 16.692 28.998 28.925
C 15.266 30.772 31.887
H 15.959 31.417 32.451
H 14.574 31.374 31.354
H 14.922 30.173 32.768
C 14.55  30.457 28.602
H 14.887 30.76  27.618
C 13.299 30.717 28.996
H 12.775 30.439 29.968
H 12.559 31.198 28.313
N 18.771 27.349 27.624
C 17.686 27.894 26.95 
C 17.749 27.622 25.541
C 18.808 26.764 25.352
C 19.479 26.743 26.67 
C 16.795 28.176 24.519
H 17.058 29.147 24.083
H 16.691 27.563 23.671
H 15.792 28.262 25.037
C 19.353 26.242 24.118
H 19.496 25.15  24.2  
H 18.629 26.29  23.362
C 20.698 26.973 23.683
H 21.518 26.883 24.454
H 20.971 26.562 22.677
H 20.365 28.02  23.618
N 20.635 26.17  29.339
C 21.168 25.604 28.201
C 22.309 24.76  28.469
C 22.491 24.872 29.908
C 21.412 25.713 30.35 
C 23.031 23.974 27.47 
H 23.786 24.583 26.942
H 23.535 23.129 27.886
H 22.333 23.523 26.765
C 23.37  24.538 31.005
O 24.451 23.977 31.103
C 22.75  25.181 32.246
H 23.505 25.865 32.675
C 22.331 24.057 33.136
O 21.823 22.983 32.831
O 22.627 24.408 34.463
C 22.109 23.444 35.506
H 21.034 23.371 35.56 
H 22.583 22.478 35.375
H 22.43  23.849 36.494
C 20.076 29.192 38.418
H 20.748 30.077 38.568
H 20.054 28.497 39.315
C 18.694 29.602 38.126
H 17.948 28.939 38.596
C 18.281 30.401 37.101
C 19.264 31.238 36.29 
H 19.328 30.795 35.308
H 18.945 32.195 36.182
H 20.377 31.307 36.531
C 16.758 30.503 36.798
H 16.307 29.773 37.426
H 16.809 30.133 35.737
C 16.143 31.886 36.934
H 16.879 32.611 37.378
H 15.375 31.654 37.592
C 15.526 32.418 35.624
H 15.598 31.599 34.843
H 16.024 33.386 35.34 
C 13.98  32.767 35.66 
H 13.853 33.373 36.594
C 13.005 31.623 35.963
H 13.135 30.779 35.211
H 13.098 31.24  36.982
H 12.014 32.125 35.982
C 13.637 33.687 34.452
H 12.619 33.639 34.242
H 14.086 33.334 33.514
C 13.972 35.177 34.584
H 14.208 35.458 35.612
H 13.078 35.693 34.192
C 15.173 35.756 33.678
H 14.903 36.336 32.793
H 15.675 34.861 33.299
C 16.048 36.826 34.541
H 16.363 36.462 35.501
C 15.422 38.298 34.745
H 15.09  38.75  33.822
H 14.552 38.362 35.434
H 16.161 38.99  35.155
C 17.427 37.062 33.833
H 17.901 37.918 34.421
H 17.254 37.41  32.794
C 18.382 35.821 33.868
H 17.864 34.927 34.209
H 19.245 35.999 34.578
C 18.873 35.505 32.407
H 20.036 35.7   32.37 
H 18.618 36.248 31.659
C 18.595 34.08  31.809
H 17.51  33.913 31.682
C 19.222 32.961 32.756
H 20.3   33.124 32.869
H 18.643 32.907 33.723
H 18.978 32.043 32.205
C 19.109 33.977 30.354
H 18.742 33.064 29.935
H 18.792 34.898 29.796
H 20.192 33.965 30.303
