137

Mg 34.42  35.453 34.598
C 31.643 35.264 32.633
C 35.01  32.167 34.028
H 35.115 31.101 34.02 
C 36.993 35.619 36.702
H 37.792 35.738 37.419
C 33.381 38.703 35.54 
H 33.154 39.688 35.832
N 33.482 33.883 33.529
C 32.302 34.032 32.722
C 31.99  32.712 31.935
H 31.015 32.387 32.119
C 32.971 31.711 32.622
H 33.555 31.128 31.914
C 33.883 32.616 33.49 
C 32.142 30.688 33.46 
H 31.395 31.252 33.982
H 31.801 29.995 32.688
H 32.666 30.024 34.172
C 31.95  32.853 30.387
H 32.829 33.409 30.01 
H 31.057 33.437 30.189
C 31.874 31.471 29.564
H 32.849 31.451 29.06 
H 31.715 30.607 30.182
C 30.962 31.257 28.319
O 31.27  30.778 27.232
O 29.702 31.593 28.62 
N 35.827 34.122 35.206
C 35.977 32.861 34.797
C 37.168 32.226 35.377
C 37.773 33.255 36.165
C 36.902 34.405 36.003
C 37.611 30.785 35.128
H 36.841 30.212 35.629
H 37.534 30.604 34.069
H 38.65  30.656 35.529
C 38.979 33.379 37.009
H 39.373 34.329 37.262
C 39.659 32.358 37.571
H 39.343 31.317 37.374
H 40.563 32.579 38.114
N 35.072 36.876 35.851
C 36.134 36.723 36.655
C 36.456 37.996 37.314
C 35.453 38.902 36.983
C 34.576 38.187 36.062
C 37.767 38.276 38.123
H 37.769 39.193 38.685
H 37.894 37.443 38.804
H 38.645 38.238 37.461
C 35.346 40.284 37.482
H 34.386 40.4   38.002
H 36.141 40.482 38.181
C 35.489 41.282 36.332
H 36.47  41.088 35.77 
H 34.633 41.161 35.571
H 35.42  42.357 36.689
N 32.887 36.732 34.19 
C 32.608 38.044 34.637
C 31.375 38.527 34.013
C 31.046 37.455 33.151
C 31.928 36.42  33.324
C 30.776 39.917 34.225
H 31.48  40.73  33.944
H 29.866 39.847 33.66 
H 30.581 40.048 35.277
C 30.069 37.094 32.211
O 29.196 37.757 31.716
C 30.317 35.646 31.859
H 30.326 35.607 30.8  
C 29.093 34.895 32.303
O 29.157 34.111 33.195
O 28.047 35.05  31.416
C 26.817 34.509 31.987
H 26.053 34.633 31.206
H 26.927 33.396 32.187
H 26.514 34.863 32.985
C 28.724 31.624 27.569
H 28.726 30.737 26.953
H 28.901 32.436 26.854
C 27.424 31.951 28.283
H 27.568 32.826 28.967
C 26.455 31.113 28.659
C 26.255 29.642 28.492
H 25.945 29.293 29.523
H 25.591 29.432 27.66 
H 27.226 29.271 28.273
C 25.421 31.738 29.57 
H 25.639 32.754 29.591
H 25.477 31.353 30.642
C 24.031 31.685 29.085
H 24.057 31.481 27.948
H 23.638 32.753 29.108
C 23.135 30.766 29.919
H 22.362 31.349 30.39 
H 23.665 30.33  30.806
C 22.5   29.658 29.13 
H 23.307 29.277 28.608
C 21.444 30.176 28.035
H 20.963 29.262 27.606
H 20.809 30.893 28.537
H 22.044 30.665 27.223
C 21.997 28.443 29.93 
H 22.865 28.085 30.504
H 21.696 27.699 29.194
C 20.761 28.546 30.798
H 20.003 28.002 30.326
H 20.42  29.549 30.835
C 21.076 28.321 32.287
H 21.657 29.196 32.648
H 21.726 27.461 32.495
C 19.778 28.134 33.228
H 19.401 27.128 32.983
C 18.552 28.958 32.803
H 17.726 28.644 33.43 
H 18.816 30.004 33.095
H 18.161 28.769 31.779
C 20.101 28.234 34.72 
H 19.238 28.187 35.382
H 20.65  29.167 34.929
C 21.087 27.085 35.269
H 22.056 27.519 35.439
H 21.323 26.371 34.521
C 20.596 26.23  36.484
H 19.544 26.539 36.679
H 21.188 26.611 37.261
C 20.801 24.74  36.655
H 21.769 24.395 36.344
C 19.835 23.954 35.772
H 20.208 22.909 35.727
H 18.866 23.871 36.266
H 19.771 24.34  34.814
C 20.614 24.248 38.1  
H 19.575 24.289 38.446
H 20.956 23.267 38.268
H 21.205 24.904 38.681
