137

Mg 29.203 30.059 32.353
C 26.514 29.861 34.625
C 26.884 30.395 29.883
H 26.178 30.236 29.096
C 31.674 30.962 30.207
H 32.611 31.034 29.535
C 31.4   29.862 34.928
H 32.164 29.673 35.704
N 26.996 29.983 32.241
C 26.073 29.905 33.289
C 24.632 29.77  32.744
H 24.341 28.73  33.069
C 24.843 29.821 31.184
H 24.318 30.703 30.796
C 26.341 30.006 31.085
C 24.212 28.598 30.431
H 24.828 28.29  29.53 
H 24.359 27.809 31.13 
H 23.237 28.774 30.118
C 23.697 30.813 33.287
H 23.836 31.715 32.751
H 24.032 30.991 34.308
C 22.257 30.523 33.135
H 22.054 29.484 32.737
H 22.002 30.519 34.208
C 21.243 31.521 32.513
O 21.567 32.519 31.911
O 20.014 31.025 32.697
N 29.288 30.742 30.425
C 28.248 30.766 29.549
C 28.724 31.113 28.146
C 30.113 31.223 28.217
C 30.365 30.92  29.662
C 27.727 31.166 26.935
H 28.341 31.041 26.061
H 27.022 30.354 27.074
H 27.303 32.154 26.914
C 31.093 31.565 27.253
H 32.107 31.078 27.344
C 30.809 32.4   26.253
H 29.895 32.906 26.049
H 31.543 32.697 25.573
N 31.232 30.448 32.521
C 32.06  30.811 31.501
C 33.458 30.711 31.986
C 33.427 30.37  33.32 
C 31.972 30.253 33.652
C 34.682 30.937 31.2  
H 35.421 30.269 31.634
H 34.471 30.641 30.158
H 35.025 31.971 31.267
C 34.54  30.38  34.341
H 34.683 29.396 34.781
H 35.454 30.67  33.87 
C 34.48  31.432 35.512
H 33.843 31.154 36.294
H 35.503 31.639 36.004
H 34.019 32.306 35.032
N 29.098 30.012 34.359
C 30.086 29.876 35.315
C 29.504 29.587 36.634
C 28.086 29.584 36.431
C 27.91  29.932 35.038
C 30.327 29.264 37.869
H 31.081 30.045 38.154
H 29.672 29.131 38.707
H 30.909 28.411 37.613
C 26.756 29.486 36.996
O 26.441 29.234 38.157
C 25.69  29.749 35.96 
H 25.38  30.754 36.315
C 24.655 28.699 36.062
O 24.629 27.693 35.405
O 23.619 29.111 36.922
C 22.603 28.112 37.098
H 22.982 27.351 37.805
H 21.745 28.429 37.643
H 22.343 27.693 36.169
C 18.871 31.774 32.103
H 19.048 32.848 32.093
H 18.068 31.421 32.765
C 18.673 31.27  30.694
H 19.048 30.244 30.621
C 18.19  31.79  29.567
C 17.479 33.144 29.463
H 17.451 33.55  30.482
H 18.027 33.688 28.725
H 16.396 33.159 29.208
C 18.199 31.034 28.265
H 18.884 30.24  28.385
H 18.436 31.654 27.443
C 16.874 30.283 27.875
H 16.104 30.78  28.463
H 16.857 29.29  28.245
C 16.642 30.309 26.404
H 17.596 30.621 25.848
H 15.94  31.074 26.049
C 16.227 28.989 25.716
H 16.911 28.174 26.033
C 16.463 29.005 24.138
H 17.403 29.405 23.853
H 16.47  27.965 23.68 
H 15.659 29.676 23.706
C 14.831 28.458 26.079
H 14.868 28.406 27.197
H 14.812 27.396 25.691
C 13.68  29.408 25.708
H 13.776 29.88  24.726
H 13.706 30.19  26.476
C 12.32  28.731 25.745
H 12.543 27.702 25.967
H 11.864 28.734 24.733
C 11.279 29.305 26.795
H 11.451 30.331 26.817
C 11.476 28.631 28.176
H 11.129 27.586 28.116
H 12.508 28.708 28.532
H 10.921 29.209 28.895
C  9.805 29.328 26.294
H  9.507 28.327 26.144
H  9.95  29.808 25.323
C  8.837 30.097 27.252
H  9.36  30.918 27.706
H  8.468 29.45  28.071
C  7.635 30.69  26.457
H  7.255 29.797 25.873
H  8.039 31.46  25.792
C  6.555 31.352 27.335
H  6.182 30.599 28.035
C  5.354 31.777 26.484
H  5.069 30.999 25.706
H  4.476 31.87  27.078
H  5.516 32.766 25.992
C  7.144 32.556 28.144
H  7.676 32.233 28.95 
H  7.866 33.065 27.466
H  6.324 33.171 28.403
