137

Mg 20.969 18.25  25.497
C 23.305 17.701 23.043
C 22.705 21.123 26.273
H 23.221 21.956 26.718
C 18.444 19.04  27.599
H 17.826 19.298 28.431
C 19.235 15.347 24.471
H 18.706 14.452 24.133
N 22.765 19.264 24.778
C 23.587 18.871 23.73 
C 24.678 19.904 23.425
H 25.662 19.512 23.106
C 24.826 20.602 24.783
H 25.072 21.674 24.703
C 23.354 20.347 25.297
C 25.847 19.913 25.652
H 26.013 18.754 25.508
H 26.861 20.313 25.391
H 25.692 20.051 26.759
C 24.331 20.809 22.254
H 23.532 21.518 22.518
H 23.863 20.249 21.444
C 25.529 21.549 21.703
H 26.417 21.041 21.966
H 25.356 21.399 20.605
C 25.832 22.978 22.159
O 26.945 23.447 22.099
O 24.767 23.645 22.761
N 20.674 19.844 26.668
C 21.501 20.875 27.005
C 20.895 21.683 28.044
C 19.606 21.149 28.289
C 19.537 19.928 27.481
C 21.541 22.915 28.633
H 21.656 22.796 29.706
H 22.449 23.136 28.237
H 20.822 23.69  28.372
C 18.662 21.529 29.411
H 17.607 21.456 29.278
C 19.053 21.923 30.648
H 20.068 22.158 30.995
H 18.288 22.174 31.384
N 19.14  17.402 25.96 
C 18.254 17.852 26.938
C 17.097 16.957 26.979
C 17.344 15.948 26.055
C 18.611 16.214 25.417
C 15.934 17.282 27.795
H 15.952 18.353 28.176
H 15.013 17.166 27.229
H 16.032 16.611 28.601
C 16.391 14.791 25.73 
H 16.961 13.837 25.776
H 15.62  14.743 26.505
C 15.813 15.001 24.346
H 16.634 15.314 23.735
H 15.3   14.057 24.011
H 14.987 15.636 24.221
N 21.154 16.762 24.144
C 20.455 15.642 23.829
C 21.098 14.937 22.699
C 22.257 15.65  22.47 
C 22.285 16.755 23.348
C 20.599 13.687 22.037
H 19.637 13.927 21.576
H 21.185 13.358 21.19 
H 20.442 12.889 22.78 
C 23.434 15.731 21.644
O 23.794 15.017 20.745
C 24.162 17.05  21.929
H 24.16  17.62  21.021
C 25.501 16.718 22.43 
O 25.819 15.888 23.258
O 26.367 17.556 21.87 
C 27.798 17.475 22.295
H 27.936 17.76  23.339
H 28.18  16.52  22.135
H 28.226 18.197 21.639
C 24.975 25.122 23.068
H 25.528 25.573 22.216
H 25.614 25.342 23.945
C 23.645 25.822 23.27 
H 23.624 26.829 22.96 
C 22.417 25.367 23.668
C 22.062 24.003 23.975
H 21.283 24.014 24.713
H 21.77  23.466 23.045
H 22.945 23.486 24.408
C 21.22  26.156 23.283
H 20.445 25.543 22.81 
H 21.607 26.827 22.485
C 20.56  27.043 24.431
H 20.825 26.758 25.472
H 19.504 26.932 24.473
C 20.816 28.541 24.2  
H 19.851 29.142 24.332
H 21.212 28.811 23.227
C 21.773 29.167 25.249
H 22.642 28.49  25.227
C 21.237 29.179 26.673
H 20.595 29.992 26.789
H 20.665 28.261 26.862
H 22.035 29.406 27.411
C 22.209 30.624 24.916
H 22.815 30.94  25.763
H 21.318 31.254 24.974
C 23.13  30.907 23.664
H 22.92  30.417 22.77 
H 24.171 30.649 24.001
C 23.147 32.426 23.291
H 24.256 32.69  23.273
H 22.563 32.982 24.034
C 22.524 32.88  21.94 
H 22.73  32.132 21.092
C 23.099 34.211 21.461
H 22.489 34.602 20.63 
H 22.958 34.976 22.207
H 24.197 34.162 21.319
C 20.949 33.016 22.09 
H 20.725 33.829 22.759
H 20.539 32.175 22.721
C 20.185 33.088 20.798
H 19.417 32.315 20.795
H 20.886 32.901 19.997
C 19.68  34.502 20.512
H 19.903 34.748 19.448
H 20.18  35.205 21.139
C 18.165 34.676 20.559
H 17.71  33.973 19.917
C 17.837 36.038 20.003
H 18.008 36.159 18.949
H 16.797 36.276 20.062
H 18.514 36.758 20.368
C 17.587 34.627 22.008
H 17.928 33.816 22.608
H 17.856 35.48  22.525
H 16.567 34.699 21.917
