137

Mg 25.12  26.836 41.89 
C 23.124 24.107 40.973
C 26.952 26.253 38.911
H 27.637 26.008 38.048
C 27.076 29.372 42.57 
H 27.667 30.237 42.834
C 23.282 27.136 44.754
H 22.674 27.226 45.676
N 25.015 25.447 40.186
C 24.111 24.363 40.013
C 24.327 23.627 38.695
H 24.313 22.526 38.896
C 25.787 24.141 38.289
H 25.973 24.399 37.234
C 25.994 25.35  39.249
C 26.814 23.031 38.536
H 26.777 22.665 39.519
H 26.667 22.212 37.787
H 27.76  23.535 38.336
C 23.197 24.065 37.702
H 23.163 25.14  37.358
H 22.308 23.891 38.261
C 22.99  23.017 36.55 
H 23.905 22.428 36.403
H 22.112 22.361 36.867
C 22.792 23.545 35.071
O 23.707 23.906 34.379
O 21.431 23.586 34.698
N 26.823 27.659 40.933
C 27.396 27.34  39.723
C 28.514 28.174 39.471
C 28.575 29.058 40.561
C 27.411 28.75  41.401
C 29.44  28.193 38.312
H 30.43  28.354 38.78 
H 29.396 27.305 37.775
H 29.137 28.967 37.627
C 29.61  30.166 40.752
H 30.642 29.95  40.556
C 29.424 31.462 41.246
H 28.444 31.856 41.594
H 30.284 32.137 41.437
N 25.162 27.96  43.429
C 26.009 29.021 43.461
C 25.705 29.81  44.672
C 24.68  29.107 45.341
C 24.308 28.019 44.484
C 26.417 31.12  45.147
H 26.265 31.124 46.159
H 27.45  31.006 44.879
H 25.989 32.02  44.693
C 24.137 29.42  46.731
H 23.64  28.561 47.177
H 24.958 29.608 47.424
C 23.196 30.62  46.811
H 22.903 30.91  47.799
H 23.658 31.481 46.326
H 22.211 30.439 46.345
N 23.511 25.884 42.757
C 22.864 26.105 43.958
C 21.81  25.104 44.161
C 21.933 24.269 43.004
C 22.977 24.825 42.182
C 20.86  25.011 45.376
H 20.216 25.898 45.296
H 20.165 24.175 45.342
H 21.462 25.173 46.243
C 21.348 23.106 42.406
O 20.416 22.331 42.711
C 22.065 22.993 41.002
H 21.311 23.263 40.237
C 22.642 21.613 40.891
O 23.797 21.326 41.079
O 21.739 20.831 40.273
C 22.299 19.485 39.909
H 21.69  18.857 39.329
H 23.25  19.553 39.428
H 22.474 18.939 40.839
C 21.157 24.394 33.459
H 21.874 24.402 32.671
H 21.103 25.444 33.762
C 19.776 23.946 33.072
H 19.188 23.75  33.956
C 19.244 23.816 31.839
C 19.869 24.279 30.54 
H 20.931 24.541 30.622
H 19.816 23.427 29.825
H 19.269 25.129 30.23 
C 17.821 23.387 31.754
H 17.617 23.107 32.785
H 17.787 22.477 31.195
C 16.71  24.323 31.266
H 16.243 24.091 30.29 
H 17.136 25.286 31.088
C 15.55  24.423 32.308
H 15.927 24.186 33.301
H 14.72  23.791 32.145
C 14.883 25.815 32.6  
H 15.744 26.583 32.673
C 14.122 25.718 34.005
H 13.518 26.621 34.212
H 13.512 24.85  34.013
H 14.838 25.64  34.842
C 14.028 26.292 31.396
H 14.606 26.194 30.489
H 13.871 27.352 31.394
C 12.756 25.455 31.137
H 12.188 25.34  32.009
H 13.05  24.456 30.801
C 11.874 26.204 30.112
H 12.391 27.119 29.748
H 10.916 26.447 30.609
C 11.276 25.43  28.921
H 12.225 25.195 28.454
C 10.433 26.383 27.968
H  9.347 26.483 28.351
H 10.899 27.389 27.908
H 10.426 25.996 26.971
C 10.549 24.088 29.478
H  9.862 24.216 30.288
H 11.312 23.441 29.93 
C  9.774 23.245 28.498
H 10.033 23.528 27.46 
H  8.712 23.459 28.613
C  9.804 21.705 28.802
H  8.766 21.219 29.003
H 10.244 21.541 29.782
C 10.374 20.825 27.657
H 11.407 21.151 27.456
C  9.487 21.08  26.425
H  9.626 22.135 25.989
H  9.499 20.328 25.61 
H  8.409 21.032 26.785
C 10.244 19.351 28.011
H 10.539 18.647 27.193
H 10.936 19.077 28.795
H  9.204 19.123 28.229
