137

Mg 30.182 29.515 36.761
C 26.942 29.153 37.944
C 29.305 28.352 33.739
H 29.039 27.959 32.798
C 33.259 30.559 35.565
H 34.221 30.966 35.1  
C 31.07  30.543 39.977
H 31.424 30.844 41.022
N 28.288 28.783 35.923
C 27.082 28.791 36.564
C 26.088 28.23  35.561
H 25.524 27.394 36.008
C 26.898 27.685 34.371
H 26.512 28.109 33.447
C 28.24  28.335 34.632
C 26.844 26.106 34.251
H 25.754 25.797 34.091
H 27.566 25.717 33.501
H 27.177 25.616 35.132
C 25.086 29.267 35.168
H 25.652 29.963 34.512
H 24.671 29.751 36.027
C 23.782 28.855 34.46 
H 23.954 27.84  34.157
H 23.029 28.898 35.277
C 23.379 29.665 33.261
O 22.919 30.766 33.333
O 23.547 29.005 32.121
N 31.147 29.488 34.923
C 30.644 28.88  33.797
C 31.606 28.901 32.74 
C 32.725 29.523 33.314
C 32.437 29.894 34.666
C 31.416 28.274 31.364
H 30.908 29.101 30.881
H 32.344 28.039 30.831
H 30.798 27.373 31.404
C 33.997 29.876 32.622
H 34.853 29.326 32.879
C 34.067 30.987 31.816
H 33.217 31.575 31.603
H 35.063 31.205 31.343
N 31.887 30.358 37.646
C 33.031 30.763 36.93 
C 33.961 31.325 37.879
C 33.34  31.379 39.149
C 32.047 30.735 38.965
C 35.19  32.053 37.393
H 35.597 32.647 38.19 
H 35.886 31.313 37.061
H 35.192 32.716 36.498
C 33.838 32.112 40.386
H 33.373 31.645 41.255
H 34.896 32.049 40.65 
C 33.39  33.563 40.503
H 32.317 33.627 40.433
H 33.632 33.917 41.482
H 33.899 34.242 39.75 
N 29.274 29.728 38.618
C 29.729 30.137 39.841
C 28.704 30.179 40.85 
C 27.537 29.774 40.093
C 27.998 29.515 38.796
C 28.71  30.625 42.3  
H 27.663 30.603 42.569
H 29.336 30.043 42.957
H 28.945 31.652 42.305
C 26.136 29.593 40.256
O 25.4   29.759 41.214
C 25.598 29.25  38.818
H 24.884 30.112 38.588
C 24.963 27.98  39.014
O 25.454 26.87  39.205
O 23.697 28.027 38.502
C 23.015 26.778 38.245
H 22.706 26.348 39.211
H 22.126 27.061 37.662
H 23.474 25.995 37.586
C 23.211 29.869 30.913
H 23.899 30.691 30.762
H 22.225 30.289 30.861
C 23.499 29.099 29.655
H 24.39  28.499 29.55 
C 22.834 29.197 28.448
C 21.699 30.097 28.191
H 21.959 30.91  27.501
H 20.826 29.586 27.777
H 21.319 30.691 29.048
C 23.341 28.35  27.287
H 24.079 28.869 26.696
H 22.515 28.084 26.676
C 23.973 26.942 27.609
H 23.462 26.486 28.471
H 25.01  27.014 27.906
C 24.004 26.103 26.337
H 25.088 25.994 26.112
H 23.68  26.643 25.494
C 23.404 24.623 26.477
H 23.934 24.139 27.354
C 23.617 23.708 25.297
H 23.33  22.777 25.717
H 22.997 23.962 24.426
H 24.621 23.634 25.002
C 21.896 24.721 26.943
H 21.665 25.205 27.957
H 21.589 23.692 27.053
C 20.963 25.439 25.943
H 21.155 25.202 24.918
H 21.174 26.47  26.033
C 19.487 25.075 26.268
H 19.42  24.117 26.813
H 18.972 25.026 25.316
C 18.734 26.19  27.062
H 18.784 27.168 26.526
C 19.285 26.443 28.481
H 19.327 25.523 29.076
H 20.275 26.79  28.361
H 18.636 27.191 28.996
C 17.189 25.816 27.139
H 17.268 25.043 27.895
H 16.872 25.338 26.266
C 16.087 26.845 27.662
H 15.183 26.667 27.048
H 16.443 27.829 27.593
C 15.734 26.428 29.091
H 16.48  25.792 29.671
H 14.786 25.964 28.938
C 15.495 27.652 30.024
H 16.276 28.345 29.693
C 15.868 27.465 31.456
H 16.92  27.113 31.567
H 15.794 28.412 32.021
H 15.091 26.781 31.789
C 14.137 28.379 29.891
H 13.878 28.369 28.816
H 13.379 27.87  30.561
H 14.304 29.408 30.247
