137

Mg 37.932 27.313 34.881
C 34.578 27.243 35.452
C 37.563 24.776 32.5  
H 37.336 24.008 31.737
C 41.224 27.203 34.501
H 42.343 27.222 34.323
C 38.085 30.129 37.062
H 38.258 30.86  37.907
N 36.301 26.213 33.994
C 34.972 26.413 34.369
C 34.058 25.649 33.47 
H 33.315 25.305 34.221
C 35.02  24.68  32.712
H 34.964 24.848 31.648
C 36.39  25.224 33.038
C 34.776 23.201 32.988
H 35.183 22.589 32.257
H 35.179 22.956 33.962
H 33.704 23.008 32.921
C 33.34  26.722 32.49 
H 34.115 27.119 31.828
H 32.981 27.565 32.965
C 32.181 26.222 31.755
H 32.481 26.323 30.715
H 31.97  25.2   32.062
C 30.827 26.98  31.901
O 29.965 26.607 32.657
O 30.782 28.103 31.156
N 39.189 26.194 33.664
C 38.886 25.14  32.807
C 40.11  24.63  32.181
C 41.165 25.291 32.726
C 40.559 26.214 33.746
C 40.119 23.696 31.035
H 39.909 22.66  31.367
H 39.346 24.125 30.407
H 41.015 23.647 30.486
C 42.63  25.171 32.559
H 43.177 26.093 32.482
C 43.248 23.971 32.493
H 42.654 23.1   32.522
H 44.343 23.819 32.383
N 39.397 28.316 35.779
C 40.763 28.156 35.455
C 41.571 29.157 36.286
C 40.624 29.896 36.977
C 39.296 29.483 36.579
C 43.085 29.242 36.262
H 43.448 28.755 35.436
H 43.524 30.211 36.24 
H 43.521 28.681 37.073
C 40.993 31.108 37.774
H 40.445 31.095 38.703
H 42.024 31.017 38.138
C 40.773 32.509 37.254
H 41.05  33.214 38.092
H 41.485 32.66  36.38 
H 39.816 32.658 36.914
N 36.711 28.542 35.977
C 36.851 29.482 36.943
C 35.629 29.751 37.698
C 34.707 28.915 37.095
C 35.388 28.171 36.079
C 35.368 30.755 38.799
H 36.068 30.64  39.599
H 35.43  31.758 38.38 
H 34.376 30.523 39.077
C 33.387 28.519 37.131
O 32.464 28.971 37.854
C 33.131 27.483 35.983
H 32.486 27.99  35.2  
C 32.465 26.283 36.597
O 32.949 25.408 37.318
O 31.148 26.298 36.15 
C 30.335 25.23  36.613
H 29.4   25.187 36.06 
H 30.804 24.219 36.472
H 30.1   25.413 37.691
C 29.545 28.819 31.267
H 29.504 29.202 32.286
H 28.688 28.051 31.11 
C 29.567 29.833 30.132
H 29.684 29.532 29.134
C 29.299 31.132 30.239
C 28.892 31.863 31.548
H 29.673 32.281 32.084
H 28.254 32.704 31.372
H 28.487 31.217 32.321
C 29.416 31.95  28.974
H 29.95  31.328 28.212
H 29.813 32.961 29.105
C 27.993 32.247 28.455
H 27.575 33.204 28.682
H 27.225 31.484 28.689
C 28.    32.304 26.83 
H 29.018 32.55  26.482
H 27.375 33.196 26.658
C 27.284 31.246 25.936
H 26.266 31.184 26.26 
C 27.824 29.825 26.177
H 27.251 29.015 25.792
H 28.92  29.797 26.006
H 27.82  29.629 27.254
C 27.323 31.678 24.374
H 27.102 30.762 23.775
H 28.319 32.041 24.146
C 26.402 32.882 23.953
H 27.159 33.657 23.733
H 25.727 33.137 24.804
C 25.59  32.611 22.652
H 24.538 32.981 22.752
H 25.501 31.561 22.573
C 26.354 33.213 21.421
H 27.429 33.243 21.62 
C 26.04  34.76  21.143
H 26.75  35.167 20.421
H 25.062 34.914 20.7  
H 26.049 35.327 22.048
C 26.022 32.454 20.149
H 26.172 32.982 19.283
H 24.939 32.26  20.23 
C 26.647 31.007 19.936
H 25.842 30.358 19.619
H 27.194 30.643 20.816
C 27.661 30.951 18.82 
H 28.66  30.659 19.135
H 27.716 31.856 18.32 
C 27.337 29.954 17.714
H 26.38  30.048 17.307
C 27.415 28.456 18.208
H 26.903 27.781 17.547
H 28.43  28.124 18.321
H 27.031 28.421 19.218
C 28.335 30.109 16.521
H 28.151 29.345 15.766
H 28.349 31.137 16.097
H 29.282 29.986 16.949
