137

Mg 24.666 32.601 35.455
C 23.511 32.476 38.706
C 21.858 34.319 34.516
H 20.977 34.875 34.237
C 26.237 33.263 32.484
H 26.685 33.553 31.538
C 27.47  30.75  36.484
H 28.189 30.033 36.89 
N 22.938 33.229 36.489
C 22.665 33.067 37.842
C 21.254 33.54  38.155
H 20.732 32.667 38.551
C 20.699 33.802 36.78 
H 20.201 34.796 36.685
C 21.934 33.88  35.888
C 19.654 32.772 36.338
H 20.031 31.716 36.332
H 18.682 32.969 36.772
H 19.542 32.981 35.289
C 21.141 34.735 39.096
H 21.572 35.614 38.5  
H 21.851 34.563 39.895
C 19.728 35.086 39.556
H 19.022 34.267 39.331
H 19.764 35.039 40.669
C 19.185 36.437 38.939
O 19.493 37.54  39.338
O 18.313 36.262 37.899
N 24.102 33.603 33.728
C 22.896 34.233 33.51 
C 22.992 34.929 32.267
C 24.252 34.59  31.653
C 24.933 33.738 32.609
C 21.997 35.947 31.853
H 22.607 36.807 31.409
H 21.441 35.486 31.108
H 21.345 36.353 32.651
C 24.887 35.033 30.366
H 25.964 35.266 30.303
C 24.311 35.096 29.135
H 23.203 34.879 28.949
H 25.011 35.3   28.246
N 26.593 32.211 34.658
C 26.976 32.498 33.381
C 28.264 31.858 33.162
C 28.589 31.109 34.351
C 27.562 31.343 35.266
C 28.985 31.842 31.932
H 28.685 32.586 31.208
H 30.071 31.914 32.111
H 28.808 30.877 31.459
C 29.764 30.222 34.5  
H 29.503 29.251 35.068
H 30.178 29.98  33.55 
C 30.865 30.962 35.315
H 30.597 31.244 36.328
H 31.709 30.273 35.364
H 31.244 31.861 34.828
N 25.389 31.785 37.233
C 26.505 31.021 37.504
C 26.488 30.637 38.927
C 25.351 31.164 39.378
C 24.77  31.919 38.367
C 27.439 29.805 39.66 
H 28.367 29.634 39.108
H 27.706 30.33  40.569
H 26.823 28.93  39.754
C 24.464 31.29  40.564
O 24.668 30.826 41.652
C 23.257 32.163 40.215
H 23.421 33.029 40.737
C 22.142 31.272 40.415
O 22.086 30.05  40.248
O 21.183 32.038 41.012
C 19.876 31.405 41.354
H 19.932 30.483 41.966
H 19.428 32.277 41.904
H 19.221 31.314 40.492
C 17.556 37.499 37.605
H 18.159 38.213 37.072
H 17.427 37.95  38.486
C 16.194 37.282 36.9  
H 15.687 38.226 36.635
C 15.635 36.157 36.469
C 16.06  34.769 36.863
H 15.737 34.564 37.896
H 15.641 33.831 36.437
H 17.177 34.652 36.836
C 14.277 36.237 35.822
H 13.927 37.279 35.87 
H 13.511 35.666 36.371
C 14.144 35.78  34.346
H 13.566 34.848 34.347
H 15.078 35.483 33.943
C 13.447 36.773 33.403
H 13.461 37.736 33.862
H 12.449 36.344 33.251
C 14.119 36.911 32.027
H 15.195 37.03  32.261
C 13.789 38.254 31.375
H 14.262 39.032 31.963
H 14.114 38.196 30.305
H 12.734 38.549 31.388
C 13.772 35.591 31.114
H 14.045 34.727 31.599
H 14.442 35.696 30.171
C 12.296 35.489 30.573
H 12.378 35.19  29.494
H 11.949 36.511 30.646
C 11.351 34.464 31.306
H 10.697 35.104 31.843
H 11.969 33.879 31.973
C 10.535 33.542 30.376
H  9.886 34.117 29.663
C  9.487 32.843 31.233
H  8.716 32.415 30.598
H  9.92  32.207 31.994
H  8.951 33.616 31.636
C 11.414 32.559 29.606
H 11.767 31.832 30.417
H 12.286 33.103 29.166
C 10.756 31.748 28.439
H  9.73  32.064 28.392
H 10.879 30.704 28.755
C 11.518 31.874 27.094
H 11.583 30.851 26.714
H 12.495 32.427 27.137
C 10.595 32.401 25.975
H  9.573 31.87  25.974
C 11.29  32.242 24.597
H 10.807 32.813 23.826
H 12.239 32.677 24.698
H 11.39  31.221 24.227
C 10.195 33.93  26.269
H  9.642 34.377 25.351
H  9.478 34.024 27.151
H 11.125 34.49  26.451
