137

Mg 30.059 33.35  34.277
C 28.408 34.069 37.228
C 27.117 33.11  32.819
H 26.236 32.954 32.18 
C 31.76  32.301 31.685
H 32.191 32.043 30.709
C 33.092 33.268 36.201
H 34.013 33.233 36.857
N 27.96  33.757 34.918
C 27.478 34.018 36.15 
C 25.954 34.267 36.091
H 25.581 33.513 36.816
C 25.613 33.787 34.729
H 25.146 34.645 34.299
C 26.958 33.559 34.1  
C 24.778 32.512 34.65 
H 24.705 32.129 33.573
H 25.171 31.718 35.234
H 23.734 32.691 34.99 
C 25.305 35.578 36.6  
H 25.651 36.406 36.031
H 25.586 35.701 37.625
C 23.769 35.549 36.635
H 23.331 34.565 36.402
H 23.32  35.928 37.491
C 23.187 36.591 35.686
O 23.083 37.801 35.871
O 22.711 35.957 34.542
N 29.544 32.964 32.451
C 28.243 32.946 31.997
C 28.222 32.631 30.577
C 29.572 32.366 30.198
C 30.368 32.583 31.469
C 27.113 32.649 29.625
H 27.251 31.906 28.807
H 26.142 32.373 30.05 
H 27.023 33.641 29.151
C 30.227 31.935 28.969
H 31.188 31.319 28.956
C 29.795 32.33  27.758
H 28.877 32.904 27.594
H 30.409 32.06  26.85 
N 32.04  32.809 33.985
C 32.582 32.42  32.806
C 33.997 32.141 32.935
C 34.367 32.554 34.243
C 33.156 32.882 34.861
C 34.927 31.728 31.73 
H 35.802 32.369 31.634
H 35.407 30.781 31.978
H 34.407 31.72  30.782
C 35.773 32.639 34.792
H 35.79  32.217 35.789
H 36.47  32.021 34.192
C 36.221 34.132 34.78 
H 35.431 34.718 35.322
H 37.134 34.242 35.329
H 36.464 34.509 33.815
N 30.681 33.621 36.281
C 31.936 33.617 36.902
C 31.767 33.927 38.261
C 30.412 34.115 38.419
C 29.796 33.891 37.191
C 32.92  33.784 39.289
H 32.411 33.751 40.214
H 33.371 32.797 39.243
H 33.717 34.589 39.291
C 29.402 34.374 39.395
O 29.634 34.665 40.543
C 28.092 34.285 38.721
H 27.594 35.174 38.895
C 27.238 33.224 39.417
O 27.591 32.11  39.71 
O 26.027 33.777 39.585
C 24.9   32.812 39.768
H 24.877 32.198 38.817
H 25.065 32.115 40.626
H 24.008 33.518 39.818
C 22.004 36.909 33.663
H 22.782 37.519 33.125
H 21.17  37.484 34.138
C 21.252 36.121 32.63 
H 21.572 35.058 32.511
C 20.199 36.423 31.907
C 19.486 37.741 31.955
H 18.787 37.792 32.79 
H 20.223 38.481 32.107
H 18.933 38.009 31.014
C 19.664 35.51  30.801
H 20.312 34.663 30.489
H 19.531 36.091 29.855
C 18.42  34.697 31.192
H 18.256 34.914 32.231
H 18.741 33.655 31.112
C 17.023 34.995 30.421
H 17.239 35.789 29.747
H 16.262 35.385 31.103
C 16.515 33.855 29.496
H 17.438 33.458 29.094
C 15.656 34.312 28.266
H 16.235 35.089 27.752
H 15.414 33.526 27.578
H 14.749 34.871 28.5  
C 15.704 32.717 30.264
H 16.424 32.231 30.957
H 15.454 31.936 29.581
C 14.307 33.007 30.985
H 14.11  34.105 30.804
H 14.313 32.916 32.032
C 13.118 32.175 30.399
H 13.411 31.748 29.398
H 12.281 32.808 30.251
C 12.506 30.924 31.073
H 12.154 31.191 32.085
C 13.592 29.871 31.143
H 13.841 29.702 30.071
H 14.457 30.259 31.624
H 13.253 28.934 31.694
C 11.225 30.347 30.369
H 11.535 29.817 29.541
H 10.52  31.153 30.07 
C 10.425 29.372 31.184
H  9.551 29.872 31.657
H 11.029 29.201 32.057
C 10.111 27.994 30.56 
H 10.331 27.152 31.28 
H 10.74  27.771 29.655
C  8.602 27.912 30.341
H  8.124 28.059 31.299
C  8.225 26.432 29.941
H  7.123 26.37  29.942
H  8.575 26.225 28.921
H  8.587 25.782 30.675
C  8.067 28.86  29.236
H  7.111 28.443 28.866
H  8.085 29.884 29.563
H  8.794 28.651 28.45 
