137

Mg 35.18  30.442 35.313
C 32.406 28.439 35.143
C 35.895 29.437 32.088
H 36.186 29.084 31.078
C 37.886 32.408 35.362
H 38.599 33.271 35.331
C 34.422 31.24  38.595
H 34.29  31.435 39.639
N 34.225 29.032 33.808
C 33.062 28.42  33.89 
C 32.635 27.77  32.553
H 32.23  26.779 32.779
C 34.063 27.668 31.841
H 34.108 27.776 30.763
C 34.781 28.787 32.553
C 34.715 26.279 31.925
H 35.699 26.245 31.424
H 34.796 25.946 32.919
H 34.165 25.546 31.322
C 31.552 28.632 31.734
H 31.967 29.579 31.41 
H 30.627 28.785 32.189
C 31.292 27.935 30.404
H 31.863 28.436 29.571
H 31.725 26.94  30.334
C 29.83  27.817 29.868
O 29.155 26.786 29.941
O 29.384 29.004 29.309
N 36.683 30.803 33.95 
C 36.761 30.379 32.672
C 37.75  31.093 32.007
C 38.39  31.961 32.908
C 37.671 31.732 34.198
C 38.006 31.008 30.455
H 37.301 31.63  29.894
H 38.865 31.54  30.102
H 38.128 29.987 30.088
C 39.597 32.741 32.499
H 39.815 32.996 31.41 
C 40.574 33.067 33.341
H 40.615 32.658 34.371
H 41.446 33.629 32.928
N 36.087 31.579 36.758
C 37.153 32.364 36.547
C 37.439 33.112 37.749
C 36.457 32.737 38.636
C 35.612 31.854 38.006
C 38.526 34.142 37.988
H 39.297 33.626 38.574
H 39.12  34.498 37.121
H 38.102 34.955 38.602
C 36.313 33.43  40.014
H 36.154 32.76  40.828
H 37.256 33.95  40.279
C 35.195 34.443 40.227
H 35.38  34.808 41.3  
H 35.219 35.213 39.476
H 34.225 33.934 40.305
N 33.8   29.955 36.633
C 33.511 30.368 37.934
C 32.254 29.757 38.42 
C 31.878 28.936 37.373
C 32.765 29.114 36.319
C 31.561 30.045 39.733
H 32.194 29.624 40.533
H 31.358 31.086 39.884
H 30.604 29.513 39.858
C 30.883 27.917 36.936
O 29.847 27.54  37.469
C 31.208 27.546 35.507
H 30.283 27.676 35.008
C 31.578 26.159 35.654
O 32.528 25.734 36.266
O 30.794 25.432 34.815
C 31.006 23.989 34.706
H 32.014 23.693 34.906
H 30.417 23.595 35.558
H 30.525 23.6   33.866
C 27.924 29.012 29.196
H 27.409 28.812 30.143
H 27.65  28.275 28.425
C 27.548 30.416 28.636
H 28.017 30.745 27.709
C 26.632 31.245 29.11 
C 25.716 31.004 30.336
H 25.847 31.77  31.095
H 24.666 30.789 30.069
H 25.94  30.095 30.856
C 26.481 32.69  28.559
H 27.222 32.959 27.87 
H 26.513 33.443 29.314
C 25.114 32.83  27.744
H 24.61  31.917 27.825
H 25.297 33.035 26.648
C 24.029 33.791 28.465
H 24.436 34.485 29.183
H 23.298 33.167 28.952
C 23.243 34.692 27.476
H 23.05  34.125 26.527
C 24.07  35.927 27.09 
H 24.428 36.272 28.056
H 24.854 35.596 26.418
H 23.457 36.673 26.65 
C 21.996 35.197 28.22 
H 21.546 35.987 27.653
H 22.297 35.579 29.238
C 20.913 34.107 28.223
H 21.035 33.248 27.49 
H 20.016 34.567 27.943
C 20.65  33.694 29.67 
H 19.881 34.246 30.128
H 21.464 34.069 30.378
C 20.348 32.275 30.076
H 21.191 31.625 29.712
C 19.129 31.672 29.358
H 19.34  31.436 28.334
H 18.839 30.818 29.856
H 18.265 32.304 29.259
C 20.24  32.193 31.689
H 19.918 31.198 32.046
H 19.411 32.868 31.923
C 21.515 32.498 32.476
H 21.189 33.439 32.879
H 22.362 32.643 31.782
C 21.758 31.596 33.713
H 21.024 30.795 33.775
H 21.382 32.231 34.474
C 23.22  31.175 34.045
H 23.874 31.988 33.913
C 23.584 30.095 32.959
H 23.347 30.482 31.978
H 24.628 29.647 33.051
H 22.901 29.281 33.1  
C 23.386 30.612 35.447
H 22.62  29.883 35.614
H 24.335 30.218 35.464
H 23.266 31.416 36.188
