137

Mg 31.123 30.545 34.534
C 30.049 27.764 32.571
C 33.766 30.838 32.403
H 34.527 30.881 31.679
C 32.116 33.179 36.302
H 32.464 34.039 36.9  
C 28.488 29.92  36.691
H 27.595 29.799 37.284
N 31.672 29.632 32.581
C 31.084 28.484 31.986
C 31.841 28.214 30.656
H 32.133 27.102 30.629
C 33.155 29.107 30.752
H 33.115 29.737 29.91 
C 32.867 29.876 32.027
C 34.44  28.208 30.777
H 34.401 27.344 31.483
H 34.5   27.662 29.876
H 35.356 28.761 30.851
C 30.991 28.666 29.462
H 30.739 29.694 29.388
H 29.997 28.32  29.596
C 31.546 28.235 28.101
H 31.86  29.168 27.717
H 32.42  27.614 28.048
C 30.545 27.428 27.213
O 30.176 27.839 26.127
O 29.947 26.381 27.893
N 32.831 31.705 34.425
C 33.759 31.764 33.474
C 34.754 32.792 33.822
C 34.269 33.477 34.941
C 33.005 32.78  35.298
C 36.063 33.024 33.048
H 36.422 32.046 32.688
H 35.76  33.6   32.118
H 36.829 33.573 33.56 
C 34.946 34.581 35.639
H 34.846 34.641 36.753
C 35.783 35.528 35.097
H 35.878 35.434 34.02 
H 36.344 36.22  35.742
N 30.345 31.435 36.176
C 30.914 32.568 36.759
C 30.092 32.93  37.883
C 29.09  31.95  38.002
C 29.324 31.021 36.956
C 30.447 34.169 38.763
H 29.541 34.425 39.327
H 31.124 33.851 39.488
H 30.717 35.002 38.144
C 27.987 31.982 39.005
H 27.721 31.018 39.412
H 28.094 32.727 39.837
C 26.711 32.551 38.342
H 26.401 31.898 37.496
H 25.912 32.754 39.075
H 26.971 33.525 37.892
N 29.594 29.166 34.639
C 28.636 29.018 35.633
C 27.907 27.769 35.357
C 28.423 27.308 34.189
C 29.501 28.151 33.783
C 26.765 27.147 36.114
H 26.068 26.643 35.417
H 27.224 26.394 36.719
H 26.37  27.808 36.894
C 28.351 26.201 33.225
O 27.58  25.282 33.233
C 29.49  26.377 32.154
H 28.891 26.463 31.241
C 30.381 25.23  32.224
O 31.462 25.202 32.719
O 29.984 24.218 31.407
C 30.795 22.969 31.409
H 30.554 22.505 32.334
H 30.431 22.352 30.504
H 31.827 23.071 31.268
C 28.957 25.598 27.198
H 29.367 24.945 26.397
H 28.267 26.3   26.662
C 28.169 24.904 28.218
H 27.483 25.617 28.774
C 27.951 23.622 28.459
C 28.673 22.464 27.751
H 29.153 21.845 28.559
H 27.91  21.901 27.15 
H 29.484 22.726 27.041
C 26.915 23.258 29.48 
H 26.761 24.009 30.339
H 27.306 22.349 29.885
C 25.578 22.994 28.828
H 25.424 21.997 29.122
H 25.579 22.975 27.798
C 24.45  23.836 29.304
H 24.716 24.248 30.26 
H 23.746 23.01  29.394
C 23.839 24.867 28.26 
H 23.757 24.357 27.303
C 24.815 26.027 28.165
H 25.49  25.874 27.267
H 24.23  26.981 27.953
H 25.318 26.133 29.176
C 22.415 25.269 28.814
H 21.982 24.323 28.869
H 21.784 25.736 28.077
C 22.24  25.911 30.249
H 21.98  26.927 29.967
H 23.214 25.921 30.708
C 21.166 25.174 31.04 
H 21.529 24.121 31.109
H 20.299 25.215 30.395
C 20.727 25.786 32.378
H 20.453 26.825 32.149
C 21.877 25.635 33.457
H 21.503 26.34  34.234
H 22.066 24.714 33.947
H 22.798 26.06  33.127
C 19.432 24.963 32.751
H 19.453 23.992 32.308
H 18.743 25.552 32.137
C 19.071 24.779 34.165
H 18.006 25.021 34.209
H 19.467 25.548 34.776
C 19.285 23.352 34.718
H 19.858 23.308 35.687
H 19.859 22.779 34.027
C 17.93  22.612 34.94 
H 17.292 22.789 34.068
C 17.21  23.24  36.104
H 16.391 22.563 36.297
H 17.842 23.213 37.003
H 16.847 24.274 36.031
C 18.071 21.023 35.225
H 18.619 20.855 36.133
H 17.135 20.535 35.129
H 18.661 20.566 34.451
