137

Mg 21.746 24.756 27.814
C 25.138 24.111 27.735
C 22.342 27.316 30.079
H 22.605 27.983 30.891
C 18.536 25.618 27.56 
H 17.481 25.805 27.561
C 21.265 22.164 25.484
H 21.159 21.433 24.753
N 23.497 25.622 28.74 
C 24.812 25.188 28.611
C 25.732 25.864 29.7  
H 26.    25.081 30.444
C 24.795 26.899 30.435
H 25.144 27.915 30.224
C 23.464 26.663 29.659
C 24.734 26.827 32.006
H 24.195 25.947 32.517
H 25.768 26.56  32.279
H 24.567 27.858 32.404
C 26.969 26.578 29.142
H 26.646 27.269 28.311
H 27.558 25.823 28.706
C 27.878 27.283 30.138
H 27.51 27.25 31.16
H 28.826 26.84  30.228
C 28.336 28.641 29.861
O 29.491 28.966 29.644
O 27.289 29.514 30.065
N 20.62  26.222 28.693
C 21.044 27.123 29.684
C 19.867 27.801 30.1  
C 18.76  27.359 29.313
C 19.285 26.311 28.485
C 19.942 28.896 31.101
H 18.939 29.327 31.318
H 20.28  28.325 31.958
H 20.635 29.695 30.911
C 17.307 27.813 29.421
H 16.911 27.933 30.418
C 16.629 28.226 28.333
H 17.152 28.212 27.402
H 15.575 28.56  28.326
N 20.203 24.053 26.668
C 18.936 24.591 26.711
C 18.13  23.902 25.671
C 18.885 22.825 25.188
C 20.193 22.987 25.82 
C 16.702 24.137 25.431
H 16.054 23.348 25.805
H 16.417 25.18  25.722
H 16.482 24.084 24.284
C 18.472 21.83  24.124
H 18.524 20.754 24.474
H 17.385 21.962 24.066
C 19.085 22.035 22.747
H 20.123 22.02  22.807
H 18.768 21.272 22.038
H 18.921 23.04  22.376
N 22.941 23.428 26.779
C 22.616 22.421 25.848
C 23.847 21.748 25.371
C 24.866 22.382 26.141
C 24.29  23.441 26.915
C 23.86  20.607 24.449
H 23.478 20.898 23.443
H 24.932 20.295 24.512
H 23.244 19.846 24.926
C 26.329 22.354 26.433
O 27.192 21.578 26.048
C 26.531 23.457 27.494
H 27.187 24.233 27.201
C 27.045 22.818 28.713
O 26.321 22.273 29.586
O 28.27  23.232 28.879
C 28.736 22.948 30.218
H 28.078 23.463 30.949
H 28.753 21.897 30.357
H 29.765 23.243 30.343
C 27.727 30.941 29.99 
H 28.192 30.998 28.978
H 28.471 31.267 30.766
C 26.656 31.898 30.202
H 26.154 31.839 31.044
C 26.159 32.809 29.337
C 26.564 32.975 27.849
H 25.908 33.759 27.508
H 27.56  33.267 27.698
H 26.336 32.103 27.301
C 24.98  33.638 29.738
H 24.322 33.177 30.513
H 24.322 33.732 28.841
C 25.472 35.024 30.191
H 26.559 35.079 30.102
H 25.19  35.146 31.247
C 24.804 36.154 29.47 
H 24.401 35.855 28.454
H 25.619 36.835 29.269
C 23.591 36.916 30.165
H 24.038 37.267 31.113
C 22.332 36.03  30.442
H 22.013 35.606 29.508
H 22.473 35.264 31.235
H 21.538 36.681 30.737
C 23.127 38.049 29.218
H 22.318 38.534 29.842
H 22.646 37.652 28.324
C 24.147 39.126 28.88 
H 24.194 39.257 27.804
H 25.08  38.902 29.307
C 23.709 40.465 29.562
H 24.376 40.84  30.324
H 22.657 40.595 29.955
C 23.611 41.728 28.64 
H 24.614 41.903 28.087
C 23.648 43.067 29.385
H 24.551 43.014 29.913
H 23.626 43.911 28.703
H 22.778 43.108 30.039
C 22.472 41.657 27.565
H 21.485 41.679 28.055
H 22.56  40.658 27.153
C 22.426 42.706 26.398
H 22.893 42.265 25.503
H 23.206 43.464 26.644
C 21.059 43.345 26.003
H 21.16  44.405 26.263
H 20.428 42.664 26.536
C 20.581 43.313 24.502
H 20.71  42.25  24.237
C 21.409 44.183 23.593
H 20.924 44.319 22.617
H 21.465 45.225 24.124
H 22.403 43.761 23.452
C 19.062 43.678 24.512
H 19.015 44.631 25.012
H 18.665 43.827 23.477
H 18.5   42.905 25.094
