137

Mg 30.509 29.656 38.881
C 27.34  29.079 39.967
C 29.329 28.972 35.616
H 28.974 28.967 34.632
C 33.416 30.73  37.479
H 34.258 31.208 36.993
C 31.404 30.726 41.907
H 31.721 31.069 42.845
N 28.524 29.043 37.863
C 27.356 28.931 38.545
C 26.212 28.402 37.574
H 26.167 27.356 37.858
C 26.918 28.508 36.155
H 26.418 29.318 35.549
C 28.353 28.827 36.569
C 26.756 27.209 35.308
H 25.737 26.943 35.224
H 27.158 27.32  34.332
H 27.27  26.471 35.882
C 24.784 29.008 37.764
H 24.816 30.135 37.468
H 24.37  28.988 38.778
C 23.641 28.281 36.997
H 23.894 27.253 37.066
H 22.64  28.578 37.433
C 23.356 28.712 35.57 
O 23.117 29.871 35.203
O 23.291 27.654 34.73 
N 31.234 29.758 36.908
C 30.621 29.376 35.706
C 31.566 29.536 34.577
C 32.722 30.121 35.163
C 32.487 30.281 36.574
C 31.226 29.139 33.143
H 30.514 29.878 32.806
H 32.024 29.115 32.508
H 30.784 28.157 33.097
C 33.97  30.649 34.476
H 34.904 30.593 35.038
C 34.025 31.166 33.228
H 33.044 31.242 32.753
H 34.918 31.622 32.79 
N 32.128 30.579 39.57 
C 33.201 30.96  38.855
C 34.103 31.735 39.676
C 33.536 31.648 41.004
C 32.289 30.965 40.888
C 35.391 32.438 39.279
H 35.67  33.026 40.187
H 36.205 31.775 39.132
H 35.212 33.148 38.44 
C 34.221 32.246 42.261
H 33.886 31.618 43.088
H 35.256 32.105 42.057
C 33.84  33.746 42.461
H 32.73  33.741 42.63 
H 34.35  34.008 43.4  
H 34.134 34.397 41.619
N 29.578 29.913 40.643
C 30.131 30.278 41.85 
C 29.135 30.159 42.852
C 28.019 29.623 42.185
C 28.327 29.447 40.85 
C 29.381 30.652 44.319
H 29.698 31.707 44.407
H 28.446 30.519 44.798
H 30.016 29.933 44.782
C 26.605 29.249 42.344
O 25.826 29.347 43.304
C 26.196 28.739 40.937
H 25.235 29.223 40.878
C 26.027 27.234 41.111
O 26.868 26.356 41.038
O 24.702 26.975 41.433
C 24.353 25.567 41.664
H 24.441 25.078 40.709
H 24.952 25.017 42.409
H 23.352 25.435 41.881
C 23.129 27.841 33.32 
H 24.021 28.41  32.93 
H 22.285 28.495 33.155
C 23.126 26.552 32.587
H 23.95  26.005 32.843
C 22.187 26.027 31.82 
C 20.919 26.827 31.403
H 21.344 27.751 31.107
H 20.409 26.295 30.583
H 20.262 26.816 32.196
C 22.429 24.634 31.264
H 23.489 24.426 31.335
H 22.312 24.561 30.13 
C 21.561 23.592 32.096
H 20.95  24.164 32.806
H 22.3   23.12  32.675
C 20.749 22.629 31.224
H 21.411 22.23  30.525
H 20.067 23.162 30.582
C 20.003 21.454 31.881
H 20.847 20.939 32.318
C 19.508 20.465 30.81 
H 19.335 19.462 31.211
H 18.716 20.952 30.225
H 20.311 20.244 30.118
C 19.022 21.774 33.063
H 19.642 22.063 33.987
H 18.61  20.744 33.21 
C 17.986 22.864 32.781
H 17.694 22.871 31.72 
H 18.404 23.802 33.026
C 16.647 22.638 33.575
H 16.737 21.845 34.323
H 15.822 22.353 32.887
C 16.103 23.853 34.369
H 16.495 24.793 33.948
C 16.586 23.776 35.848
H 16.136 23.03  36.499
H 17.706 23.75  35.908
H 16.343 24.769 36.306
C 14.509 23.933 34.195
H 13.962 23.062 34.545
H 14.242 24.185 33.192
C 13.937 25.121 34.982
H 14.778 25.898 34.989
H 13.86  24.576 35.931
C 12.571 25.531 34.474
H 11.838 25.17  35.158
H 12.224 25.108 33.533
C 12.539 27.068 34.195
H 13.164 27.568 34.864
C 11.122 27.648 34.286
H 10.633 27.352 35.271
H 11.127 28.714 34.113
H 10.578 27.322 33.388
C 13.139 27.364 32.823
H 14.169 27.054 32.847
H 12.613 26.892 31.995
H 13.078 28.458 32.654
