137

Mg 28.928 30.016 32.145
C 27.944 26.822 31.343
C 29.955 30.518 28.828
H 30.435 30.539 27.869
C 29.878 33.108 32.963
H 30.03  34.169 33.188
C 28.455 29.23  35.52 
H 28.376 28.962 36.578
N 28.942 28.886 30.345
C 28.362 27.596 30.256
C 28.352 27.121 28.816
H 28.857 26.188 28.892
C 29.352 28.12  28.143
H 28.908 28.592 27.305
C 29.372 29.28  29.119
C 30.707 27.481 27.75 
H 31.089 27.134 28.75 
H 30.558 26.665 27.057
H 31.359 28.235 27.263
C 26.947 26.936 28.093
H 26.419 27.96  28.046
H 26.227 26.293 28.621
C 27.029 26.4   26.609
H 26.413 26.962 25.944
H 28.062 26.549 26.263
C 26.678 24.921 26.287
O 27.35  24.144 25.607
O 25.438 24.56  26.814
N 29.84  31.641 30.987
C 30.201 31.676 29.666
C 30.656 32.988 29.345
C 30.638 33.799 30.531
C 30.113 32.863 31.545
C 31.074 33.375 28.023
H 30.468 34.344 27.848
H 32.084 33.653 28.05 
H 30.803 32.666 27.229
C 31.111 35.224 30.64 
H 31.814 35.513 29.828
C 30.715 36.218 31.484
H 30.081 36.038 32.291
H 31.11  37.297 31.393
N 29.133 30.954 33.952
C 29.48  32.297 34.005
C 29.391 32.72  35.414
C 29.018 31.603 36.167
C 28.833 30.519 35.205
C 29.633 34.134 35.908
H 28.866 34.433 36.691
H 30.567 34.008 36.403
H 29.661 34.946 35.21 
C 28.922 31.564 37.718
H 29.67  30.829 38.136
H 29.149 32.585 38.179
C 27.549 31.184 38.288
H 26.791 31.877 38.006
H 27.315 30.195 37.912
H 27.623 31.306 39.361
N 28.148 28.468 33.211
C 28.105 28.229 34.572
C 27.542 26.946 34.816
C 27.381 26.345 33.539
C 27.825 27.303 32.631
C 27.243 26.419 36.193
H 26.425 25.692 36.081
H 28.1   25.867 36.723
H 26.887 27.284 36.729
C 27.021 25.119 32.758
O 26.755 23.988 33.223
C 27.297 25.388 31.234
H 26.481 25.334 30.598
C 28.234 24.305 30.749
O 29.45  24.372 30.579
O 27.459 23.268 30.32 
C 28.089 22.096 29.722
H 27.186 21.515 29.545
H 28.658 22.243 28.789
H 28.731 21.699 30.454
C 24.853 23.361 26.258
H 25.384 22.441 26.614
H 25.053 23.213 25.154
C 23.42  23.252 26.629
H 22.733 23.875 25.971
C 22.78  22.46  27.491
C 23.556 21.671 28.588
H 23.111 20.701 28.761
H 24.581 21.409 28.294
H 23.561 22.245 29.484
C 21.347 22.552 27.72 
H 21.175 23.554 28.195
H 21.133 21.861 28.495
C 20.545 22.252 26.471
H 19.966 21.427 26.788
H 21.187 22.037 25.564
C 19.66  23.443 26.01 
H 19.847 23.472 24.911
H 20.093 24.346 26.443
C 18.08  23.194 26.303
H 17.834 22.228 25.794
C 17.22  24.226 25.577
H 17.358 25.142 26.103
H 17.507 24.44  24.539
H 16.163 23.935 25.589
C 17.586 22.869 27.764
H 18.069 21.988 28.03 
H 16.496 22.633 27.767
C 17.75  24.087 28.757
H 16.853 24.539 28.923
H 18.458 24.787 28.175
C 18.458 23.719 30.11 
H 19.197 24.552 30.218
H 19.093 22.878 29.847
C 17.637 23.524 31.445
H 17.245 24.542 31.708
C 18.564 23.038 32.537
H 19.004 22.106 32.256
H 19.44  23.724 32.642
H 17.99  23.096 33.467
C 16.422 22.655 31.224
H 16.817 21.741 30.839
H 15.756 23.122 30.429
C 15.501 22.294 32.454
H 14.649 22.953 32.141
H 15.814 22.658 33.435
C 15.075 20.829 32.603
H 15.725 20.108 32.114
H 14.263 20.646 31.883
C 14.83  20.361 34.006
H 14.369 21.113 34.565
C 16.129 20.007 34.776
H 15.773 19.75  35.72 
H 16.624 19.169 34.281
H 16.759 20.891 34.761
C 13.823 19.196 33.893
H 14.356 18.27  33.641
H 13.429 19.134 34.874
H 13.009 19.221 33.139
