137

Mg 29.298 30.444 32.723
C 26.925 29.774 35.009
C 26.844 30.778 30.241
H 26.028 30.813 29.417
C 31.508 31.529 30.47 
H 32.264 32.024 29.805
C 31.778 30.002 35.065
H 32.525 29.773 35.844
N 27.168 30.352 32.669
C 26.369 30.06  33.731
C 24.931 29.668 33.306
H 24.798 28.573 33.47 
C 24.889 30.018 31.84 
H 24.224 30.835 31.776
C 26.422 30.428 31.562
C 24.386 28.916 30.853
H 24.221 29.361 29.918
H 25.158 28.17  30.732
H 23.396 28.358 31.047
C 23.822 30.499 34.074
H 24.001 31.565 33.799
H 24.143 30.485 35.115
C 22.376 29.987 33.792
H 22.406 29.13  33.097
H 21.915 29.731 34.714
C 21.372 30.985 33.194
O 21.109 32.071 33.691
O 20.863 30.433 32.052
N 29.167 31.235 30.766
C 28.125 31.211 29.914
C 28.436 31.698 28.582
C 29.857 31.889 28.667
C 30.251 31.509 29.997
C 27.526 31.793 27.354
H 27.646 30.923 26.742
H 26.456 31.801 27.547
H 27.686 32.684 26.838
C 30.747 32.348 27.579
H 31.814 32.343 27.82 
C 30.461 32.707 26.283
H 29.512 32.68  25.683
H 31.366 33.092 25.76 
N 31.299 30.667 32.726
C 32.043 31.222 31.67 
C 33.464 31.143 32.035
C 33.521 30.625 33.358
C 32.162 30.445 33.764
C 34.575 31.65  31.179
H 35.493 31.441 31.668
H 34.679 31.081 30.219
H 34.428 32.709 31.099
C 34.632 30.43  34.308
H 34.348 29.885 35.144
H 35.4  29.92 33.7 
C 35.157 31.843 34.69 
H 34.289 32.54  34.805
H 35.675 31.667 35.629
H 35.695 32.202 33.844
N 29.398 30.064 34.659
C 30.458 29.838 35.547
C 29.902 29.48  36.84 
C 28.566 29.412 36.633
C 28.249 29.754 35.329
C 30.751 29.272 38.064
H 31.016 30.243 38.496
H 30.184 28.693 38.8  
H 31.624 28.573 37.78 
C 27.356 29.139 37.3  
O 27.092 28.982 38.481
C 26.194 29.471 36.265
H 25.485 30.327 36.637
C 25.513 28.244 36.271
O 25.898 27.17  35.852
O 24.257 28.468 36.766
C 23.334 27.297 37.006
H 23.563 26.726 37.909
H 22.339 27.837 37.23 
H 23.233 26.689 36.145
C 20.008 31.422 31.447
H 20.51  32.402 31.226
H 19.076 31.57  32.056
C 19.576 30.773 30.172
H 19.911 29.763 30.024
C 18.73  31.255 29.196
C 18.129 32.647 29.057
H 18.481 33.364 29.757
H 18.353 33.001 28.029
H 17.05  32.541 29.198
C 18.38  30.332 28.042
H 18.714 29.292 28.267
H 18.847 30.731 27.184
C 16.996 29.848 27.793
H 16.4   30.627 28.211
H 16.74  28.987 28.442
C 16.767 29.609 26.288
H 17.665 29.791 25.697
H 16.118 30.398 25.895
C 16.113 28.238 25.941
H 16.876 27.529 26.223
C 15.85  28.193 24.339
H 16.788 28.515 23.785
H 15.552 27.191 24.074
H 15.093 28.941 24.194
C 14.819 27.917 26.772
H 15.022 27.791 27.844
H 14.437 26.896 26.487
C 13.574 28.947 26.599
H 14.017 29.823 26.079
H 13.398 29.325 27.612
C 12.37  28.313 26.008
H 12.485 27.204 25.812
H 12.248 28.822 25.086
C 11.079 28.484 26.869
H 11.343 29.393 27.406
C 11.018 27.323 27.914
H 11.264 26.327 27.478
H 11.608 27.533 28.822
H  9.962 27.197 28.264
C  9.772 28.585 26.121
H  9.395 27.577 25.865
H  9.96  28.942 25.13 
C  8.653 29.375 26.777
H  9.07  29.707 27.687
H  7.797 28.803 27.069
C  8.234 30.614 25.974
H  8.416 30.465 24.942
H  8.816 31.467 26.231
C  6.743 31.059 25.953
H  6.3   30.283 25.408
C  6.467 32.266 25.113
H  6.601 32.064 24.037
H  5.503 32.684 25.225
H  7.159 33.06  25.413
C  6.026 30.973 27.31 
H  6.169 30.038 27.85 
H  6.543 31.695 27.894
H  4.928 30.972 27.338
