137

Mg 21.046 26.459 28.419
C 24.393 26.04  28.539
C 21.26  28.644 31.133
H 21.318 29.172 32.095
C 17.702 27.192 28.206
H 16.608 27.368 28.2  
C 20.799 24.077 26.064
H 20.73  23.313 25.262
N 22.636 27.227 29.691
C 23.976 26.974 29.541
C 24.823 27.634 30.594
H 25.509 26.972 31.181
C 23.712 28.134 31.55 
H 23.797 29.126 31.883
C 22.43  28.051 30.737
C 23.734 27.465 32.977
H 24.494 27.952 33.598
H 22.77  27.616 33.635
H 23.933 26.396 33.008
C 25.774 28.786 30.023
H 25.201 29.606 29.599
H 26.324 28.389 29.163
C 26.89  29.374 31.048
H 26.767 29.149 32.15 
H 27.828 29.036 30.562
C 27.161 30.853 30.99 
O 28.104 31.364 30.39 
O 26.174 31.557 31.661
N 19.843 27.818 29.327
C 20.102 28.588 30.435
C 18.921 29.368 30.823
C 17.884 28.928 30.03 
C 18.455 27.953 29.099
C 18.897 30.468 31.821
H 18.821 30.088 32.891
H 19.741 31.144 31.721
H 18.031 30.988 31.505
C 16.461 29.434 30.004
H 15.975 29.636 30.948
C 15.853 29.87  28.858
H 16.366 29.831 27.851
H 14.792 30.192 28.907
N 19.499 25.782 27.341
C 18.197 26.154 27.46 
C 17.426 25.343 26.568
C 18.318 24.564 25.804
C 19.628 24.768 26.454
C 15.968 25.533 26.326
H 15.379 24.62  26.574
H 15.6   26.485 26.748
H 15.953 25.648 25.251
C 18.096 23.537 24.698
H 18.76  23.807 23.855
H 18.388 22.581 25.053
C 16.621 23.341 24.167
H 16.337 24.277 23.606
H 16.74  22.647 23.357
H 15.898 22.909 24.866
N 22.291 25.253 27.539
C 22.074 24.282 26.594
C 23.241 23.703 26.188
C 24.227 24.406 26.95 
C 23.593 25.247 27.773
C 23.492 22.762 25.067
H 23.747 23.449 24.264
H 24.401 22.234 25.319
H 22.698 22.124 24.845
C 25.656 24.631 27.025
O 26.483 24.091 26.261
C 25.847 25.507 28.288
H 26.667 26.194 28.183
C 26.351 24.511 29.247
O 25.871 23.405 29.469
O 27.254 25.065 30.09 
C 27.595 24.26  31.295
H 26.712 24.222 31.872
H 27.969 23.253 31.088
H 28.267 24.91  31.851
C 26.271 33.026 31.427
H 26.284 33.118 30.363
H 27.178 33.488 31.939
C 24.975 33.607 31.863
H 24.399 33.024 32.506
C 24.356 34.64  31.214
C 24.92  35.612 30.148
H 25.112 36.539 30.612
H 25.865 35.118 29.729
H 24.267 35.826 29.394
C 22.953 34.902 31.638
H 22.515 34.22  32.353
H 22.45  34.683 30.656
C 22.663 36.372 31.986
H 23.647 36.796 32.368
H 21.945 36.431 32.763
C 22.252 37.371 30.837
H 21.849 36.828 30.034
H 23.121 37.79  30.423
C 21.27  38.568 31.298
H 21.707 39.041 32.193
C 19.855 38.143 31.622
H 19.341 38.865 32.246
H 19.41  38.046 30.599
H 19.789 37.105 32.048
C 21.131 39.517 30.071
H 20.138 39.994 30.205
H 21.094 38.867 29.227
C 22.347 40.472 29.783
H 22.376 40.766 28.742
H 23.253 39.885 30.051
C 22.311 41.754 30.62 
H 23.257 41.854 31.071
H 21.541 41.648 31.375
C 22.127 43.032 29.764
H 22.728 42.963 28.86 
C 22.81  44.255 30.479
H 22.252 44.794 31.224
H 23.767 43.974 30.951
H 23.003 44.978 29.742
C 20.64  43.473 29.507
H 20.165 43.844 30.394
H 20.039 42.672 29.053
C 20.468 44.671 28.514
H 21.431 44.991 28.145
H 20.239 45.51  29.195
C 19.35  44.308 27.46 
H 18.82  43.316 27.522
H 19.804 44.323 26.452
C 18.207 45.343 27.287
H 18.753 46.218 27.227
C 17.294 45.286 28.547
H 16.442 45.866 28.289
H 17.01  44.269 28.729
H 17.871 45.683 29.388
C 17.405 45.163 25.954
H 17.018 44.137 26.055
H 16.688 45.989 25.862
H 18.035 45.213 25.089
