137

Mg 29.721 28.117 32.519
C 27.316 26.35  30.681
C 31.888 27.516 29.929
H 32.626 27.333 29.099
C 31.982 29.857 34.21 
H 32.742 30.409 34.706
C 27.433 28.361 35.058
H 26.759 28.492 35.83 
N 29.619 27.168 30.492
C 28.542 26.525 29.925
C 28.88  25.793 28.613
H 28.771 24.67  28.577
C 30.435 26.064 28.459
H 30.649 26.665 27.579
C 30.704 26.921 29.713
C 31.196 24.725 28.501
H 30.996 24.261 29.545
H 30.734 24.117 27.711
H 32.229 24.877 28.301
C 27.926 26.331 27.454
H 27.904 27.399 27.37 
H 26.976 25.966 27.744
C 28.264 25.68  26.059
H 28.813 26.318 25.284
H 28.805 24.694 26.183
C 26.967 25.128 25.376
O 26.778 24.017 24.924
O 25.993 26.078 25.313
N 31.641 28.705 32.044
C 32.344 28.365 30.961
C 33.637 29.02  31.05 
C 33.768 29.683 32.29 
C 32.402 29.409 32.916
C 34.629 28.869 29.938
H 34.6   27.861 29.561
H 34.423 29.478 29.   
H 35.566 29.143 30.33 
C 34.89  30.472 32.905
H 34.775 30.791 33.903
C 36.005 30.891 32.33 
H 36.28  30.596 31.263
H 36.785 31.355 32.88 
N 29.673 29.148 34.285
C 30.773 29.743 34.91 
C 30.362 30.353 36.204
C 29.012 30.004 36.33 
C 28.62  29.079 35.218
C 31.135 31.209 37.18 
H 30.599 32.129 37.555
H 31.246 30.488 38.005
H 32.044 31.412 36.723
C 28.036 30.419 37.396
H 27.669 29.508 37.842
H 28.588 30.854 38.263
C 26.793 31.261 37.032
H 26.939 32.291 36.752
H 26.188 30.811 36.221
H 26.118 31.324 37.855
N 27.798 27.578 32.812
C 26.968 27.735 33.891
C 25.696 27.09  33.713
C 25.808 26.53  32.405
C 27.067 26.824 31.992
C 24.578 27.08  34.801
H 23.796 26.386 34.586
H 25.072 26.783 35.787
H 24.126 28.089 34.949
C 25.143 25.738 31.441
O 24.    25.309 31.466
C 26.034 25.642 30.267
H 25.437 26.005 29.396
C 26.355 24.174 30.191
O 26.565 23.451 31.17 
O 26.45  23.716 28.905
C 26.837 22.304 28.617
H 26.064 21.673 28.976
H 26.985 22.099 27.555
H 27.692 22.06  29.141
C 24.616 25.711 25.156
H 24.58  24.741 24.698
H 24.141 26.455 24.486
C 23.852 25.663 26.426
H 24.58  25.438 27.213
C 22.578 25.975 26.613
C 21.64  26.414 25.56 
H 20.739 25.792 25.492
H 21.326 27.506 25.591
H 22.163 26.356 24.591
C 21.907 25.868 28.001
H 22.807 26.17  28.592
H 21.607 24.813 28.156
C 20.66  26.698 28.448
H 20.681 27.598 27.813
H 20.762 26.993 29.457
C 19.319 25.937 28.328
H 19.054 25.748 29.397
H 19.382 25.055 27.683
C 18.155 26.819 27.76 
H 18.391 27.227 26.767
C 17.821 27.903 28.809
H 17.431 27.467 29.776
H 18.726 28.544 29.049
H 17.088 28.618 28.44 
C 16.906 25.955 27.477
H 17.083 25.248 26.647
H 16.104 26.674 27.092
C 16.35  25.147 28.654
H 15.341 25.348 28.842
H 16.847 25.364 29.555
C 16.238 23.571 28.309
H 16.681 23.425 27.371
H 15.224 23.154 28.366
C 17.093 22.777 29.312
H 17.969 23.366 29.446
C 17.755 21.575 28.656
H 18.578 21.335 29.264
H 16.996 20.779 28.686
H 18.191 21.714 27.646
C 16.368 22.367 30.687
H 15.638 21.551 30.426
H 15.833 23.193 31.113
C 17.362 21.851 31.791
H 17.037 22.415 32.672
H 18.437 21.963 31.543
C 17.142 20.359 32.05 
H 16.535 19.814 31.295
H 16.569 20.263 32.945
C 18.41  19.517 32.178
H 19.054 19.599 31.326
C 18.131 17.989 32.343
H 17.491 17.807 33.196
H 17.736 17.568 31.399
H 19.093 17.539 32.517
C 19.191 20.066 33.39 
H 19.1   19.439 34.249
H 20.209 20.28  33.119
H 18.797 21.068 33.689
