137

Mg 21.061 18.439 27.081
C 22.404 17.942 23.922
C 24.136 19.802 28.032
H 25.066 20.297 28.279
C 19.865 18.823 30.086
H 19.389 19.188 30.98 
C 18.511 16.307 26.297
H 17.644 15.711 25.985
N 22.914 18.951 26.04 
C 23.241 18.735 24.69 
C 24.63  19.265 24.268
H 25.272 18.525 23.79 
C 25.266 19.595 25.676
H 25.42  20.716 25.741
C 24.045 19.415 26.686
C 26.578 18.907 26.14 
H 26.732 18.964 27.214
H 26.526 17.857 25.878
H 27.386 19.41  25.571
C 24.501 20.401 23.255
H 23.927 21.129 23.734
H 23.832 20.042 22.534
C 25.793 21.029 22.728
H 26.63  20.498 23.361
H 25.854 20.756 21.675
C 25.98  22.55  22.614
O 26.713 23.068 21.805
O 25.014 23.229 23.317
N 21.832 19.245 28.8  
C 23.082 19.807 28.975
C 23.121 20.396 30.308
C 21.85  20.19  30.885
C 21.044 19.471 29.911
C 24.33  21.101 30.779
H 25.169 20.392 30.81 
H 24.592 21.945 30.13 
H 24.195 21.613 31.743
C 21.335 20.435 32.245
H 20.24  20.436 32.339
C 22.092 20.766 33.313
H 23.171 20.764 33.328
H 21.739 20.986 34.374
N 19.479 17.7   28.073
C 19.114 17.968 29.338
C 17.945 17.294 29.741
C 17.577 16.567 28.627
C 18.603 16.815 27.607
C 17.226 17.432 31.094
H 17.439 18.431 31.454
H 16.084 17.502 30.973
H 17.606 16.617 31.694
C 16.422 15.624 28.484
H 16.754 14.731 28.009
H 16.067 15.357 29.536
C 15.267 16.204 27.705
H 14.783 15.352 27.183
H 14.506 16.674 28.333
H 15.54  16.944 26.925
N 20.492 17.397 25.461
C 19.44  16.574 25.262
C 19.449 16.07  23.856
C 20.612 16.591 23.322
C 21.215 17.369 24.313
C 18.416 15.173 23.242
H 18.486 15.31  22.194
H 18.634 14.102 23.426
H 17.396 15.33  23.507
C 21.444 16.596 22.102
O 21.222 16.139 21.003
C 22.696 17.383 22.504
H 22.77  18.117 21.704
C 23.85  16.318 22.529
O 23.974 15.425 23.339
O 24.78  16.669 21.554
C 25.691 15.561 21.304
H 26.239 15.878 20.42 
H 26.347 15.212 22.067
H 25.199 14.635 21.077
C 24.972 24.646 23.039
H 24.699 24.84  22.018
H 25.877 25.167 23.181
C 23.81  24.996 23.92 
H 24.116 25.065 25.002
C 22.54  25.142 23.562
C 21.913 24.704 22.249
H 21.728 25.637 21.783
H 22.503 24.034 21.634
H 20.995 24.196 22.581
C 21.572 25.678 24.576
H 22.128 25.711 25.524
H 20.696 25.072 24.708
C 20.968 27.081 24.293
H 20.264 26.95  23.529
H 21.822 27.632 23.831
C 20.288 27.782 25.479
H 20.028 27.047 26.179
H 19.365 28.199 25.178
C 21.109 28.817 26.204
H 21.371 29.663 25.622
C 22.436 28.159 26.724
H 22.987 28.916 27.272
H 22.195 27.391 27.468
H 23.052 27.751 25.842
C 20.224 29.348 27.428
H 20.919 29.882 28.093
H 19.92  28.525 28.05 
C 19.052 30.214 27.048
H 18.223 29.583 27.456
H 19.088 30.341 25.968
C 19.053 31.653 27.682
H 18.606 32.218 26.871
H 20.06  31.956 27.946
C 18.255 31.917 29.013
H 17.402 31.239 28.986
C 17.467 33.286 29.066
H 17.342 33.491 30.102
H 17.96  34.056 28.516
H 16.446 33.07  28.639
C 19.057 31.684 30.351
H 19.38  32.663 30.75 
H 19.817 31.011 30.069
C 18.248 30.851 31.372
H 18.865 29.987 31.769
H 17.372 30.382 30.905
C 17.821 31.711 32.583
H 17.812 32.769 32.275
H 18.465 31.485 33.378
C 16.33  31.629 32.968
H 15.718 32.039 32.121
C 15.97  32.372 34.267
H 16.431 33.385 34.102
H 14.904 32.627 34.3  
H 16.436 31.897 35.092
C 15.83  30.143 33.279
H 15.752 29.509 32.357
H 16.455 29.621 34.017
H 14.844 30.194 33.61 
