137

Mg 33.002 31.855 35.391
C 31.269 29.562 33.636
C 34.851 32.618 32.541
H 35.427 32.795 31.629
C 34.47  34.251 37.024
H 34.917 35.094 37.505
C 31.016 31.26  38.111
H 30.272 31.189 38.918
N 33.098 31.108 33.309
C 32.227 30.158 32.848
C 32.444 30.038 31.335
H 32.474 28.96  31.166
C 33.894 30.658 31.157
H 33.995 31.239 30.322
C 34.011 31.553 32.329
C 35.02  29.661 31.126
H 34.885 28.983 31.996
H 35.029 29.001 30.241
H 35.92  30.264 31.247
C 31.329 30.715 30.611
H 31.391 31.8   30.812
H 30.493 30.213 31.028
C 31.266 30.644 29.129
H 31.276 31.652 28.76 
H 32.152 30.152 28.715
C 30.11  29.847 28.511
O 29.515 30.143 27.465
O 29.952 28.602 29.12 
N 34.314 33.283 34.855
C 34.973 33.396 33.678
C 36.012 34.419 33.791
C 35.979 34.931 35.058
C 34.923 34.123 35.705
C 36.924 34.831 32.697
H 37.207 33.969 32.119
H 36.179 35.345 32.059
H 37.594 35.526 33.135
C 36.87  36.007 35.653
H 36.394 36.844 36.298
C 38.202 36.028 35.5  
H 38.804 35.295 34.891
H 38.788 36.801 36.03 
N 32.814 32.597 37.269
C 33.599 33.599 37.785
C 33.364 33.791 39.206
C 32.291 32.957 39.471
C 31.984 32.211 38.272
C 34.089 34.819 40.102
H 34.593 35.551 39.469
H 33.378 35.439 40.606
H 34.895 34.565 40.775
C 31.617 32.904 40.817
H 31.612 31.897 41.087
H 32.26  33.389 41.569
C 30.338 33.705 40.912
H 29.636 33.174 40.309
H 29.937 33.715 41.914
H 30.464 34.729 40.479
N 31.49  30.685 35.856
C 30.672 30.59  36.952
C 29.668 29.614 36.741
C 29.822 29.19  35.472
C 31.031 29.781 35.013
C 28.593 29.091 37.696
H 28.249 29.803 38.419
H 27.721 28.734 37.136
H 28.994 28.29  38.316
C 29.387 28.246 34.453
O 28.454 27.432 34.343
C 30.311 28.452 33.226
H 29.698 28.597 32.387
C 31.056 27.193 32.905
O 31.741 26.602 33.63 
O 30.928 26.821 31.615
C 31.861 25.773 31.197
H 32.873 25.895 31.514
H 31.413 24.807 31.358
H 31.834 25.655 30.085
C 29.001 27.694 28.516
H 29.511 27.292 27.614
H 27.964 28.156 28.345
C 28.681 26.602 29.489
H 28.092 26.941 30.369
C 28.728 25.26  29.339
C 29.34  24.541 28.224
H 29.712 23.614 28.605
H 28.633 24.45  27.404
H 30.259 25.045 27.924
C 28.105 24.37  30.456
H 27.664 24.941 31.29 
H 28.892 23.925 30.96 
C 27.136 23.241 30.057
H 27.487 22.226 30.301
H 27.093 23.186 28.974
C 25.617 23.398 30.508
H 25.547 24.386 30.944
H 25.412 22.617 31.25 
C 24.564 23.339 29.374
H 24.69  22.365 28.817
C 24.699 24.546 28.395
H 25.749 24.54  28.123
H 24.042 24.414 27.539
H 24.472 25.498 28.923
C 23.135 23.2   29.864
H 23.082 22.303 30.429
H 22.561 23.176 28.933
C 22.582 24.359 30.653
H 21.575 24.483 30.335
H 23.082 25.299 30.484
C 22.567 24.046 32.114
H 23.126 24.771 32.707
H 23.174 23.169 32.216
C 21.227 23.784 32.843
H 20.676 23.079 32.237
C 20.242 24.999 32.947
H 20.034 25.416 31.943
H 19.258 24.746 33.465
H 20.696 25.847 33.503
C 21.49  23.264 34.395
H 22.026 24.061 34.947
H 22.035 22.356 34.58 
C 20.11  22.938 35.144
H 20.236 21.912 35.475
H 19.31  22.889 34.449
C 19.755 23.817 36.288
H 18.682 24.099 36.202
H 20.321 24.689 36.341
C 19.84  23.136 37.622
H 20.803 22.726 37.793
C 18.926 21.84  37.739
H 18.93  21.467 38.811
H 17.882 21.939 37.385
H 19.303 20.949 37.162
C 19.606 24.061 38.866
H 18.594 24.49  38.842
H 19.801 23.353 39.701
H 20.367 24.867 38.874
