137

Mg 19.106 26.868 29.374
C 21.249 25.184 31.522
C 18.056 28.725 32.052
H 17.736 29.292 32.957
C 17.133 28.639 27.282
H 16.69  29.401 26.569
C 20.448 25.07  26.693
H 20.882 24.589 25.832
N 19.607 26.994 31.545
C 20.473 26.205 32.184
C 20.607 26.586 33.647
H 20.642 25.614 34.142
C 19.321 27.426 33.895
H 19.617 28.353 34.399
C 18.928 27.724 32.379
C 18.174 26.736 34.738
H 17.425 27.395 35.169
H 17.761 25.96  34.075
H 18.754 26.282 35.537
C 22.004 27.316 33.97 
H 22.05  28.425 33.894
H 22.73  26.987 33.218
C 22.539 26.97  35.395
H 21.926 26.237 35.909
H 23.568 26.615 35.243
C 22.47  28.165 36.317
O 23.466 28.865 36.668
O 21.145 28.531 36.486
N 17.767 28.401 29.644
C 17.488 29.048 30.831
C 16.451 30.04  30.596
C 16.282 30.146 29.183
C 17.095 29.053 28.612
C 15.834 30.884 31.703
H 14.741 30.845 31.586
H 16.087 30.424 32.694
H 16.164 31.96  31.598
C 15.482 31.02  28.292
H 15.258 30.697 27.236
C 14.973 32.197 28.668
H 15.059 32.616 29.665
H 14.437 32.805 27.839
N 18.749 26.804 27.372
C 17.939 27.616 26.673
C 18.139 27.431 25.257
C 19.121 26.48  25.102
C 19.462 26.092 26.451
C 17.318 28.162 24.219
H 16.354 27.708 24.383
H 17.264 29.216 24.417
H 17.803 28.028 23.235
C 19.565 25.893 23.871
H 19.781 24.819 24.092
H 18.788 26.012 23.143
C 20.83  26.635 23.396
H 21.674 26.324 24.075
H 21.017 26.295 22.321
H 20.66  27.749 23.595
N 20.523 25.369 29.149
C 20.905 24.683 27.967
C 21.954 23.705 28.355
C 22.07  23.91  29.765
C 21.26  24.907 30.152
C 22.532 22.571 27.582
H 23.608 22.711 27.449
H 22.234 21.717 28.164
H 22.152 22.638 26.544
C 22.761 23.402 30.95 
O 23.624 22.531 31.14 
C 22.244 24.247 32.164
H 23.186 24.621 32.631
C 21.407 23.408 33.014
O 20.409 22.776 32.649
O 21.918 23.535 34.289
C 21.194 22.674 35.249
H 20.203 23.024 35.517
H 21.15  21.708 34.839
H 21.752 22.564 36.201
C 20.887 29.922 36.821
H 21.382 30.595 36.157
H 21.297 30.021 37.893
C 19.333 29.958 36.8  
H 18.952 29.363 37.623
C 18.51  30.593 35.965
C 18.926 31.307 34.693
H 18.134 31.258 33.867
H 19.216 32.346 34.849
H 19.77  30.759 34.391
C 17.02  30.595 36.148
H 16.688 29.883 36.928
H 16.604 30.337 35.207
C 16.436 31.962 36.686
H 17.179 32.61  37.183
H 15.643 31.739 37.402
C 15.894 32.853 35.492
H 16.274 32.609 34.526
H 16.363 33.829 35.73 
C 14.359 33.    35.421
H 13.994 33.193 36.412
C 13.664 31.749 34.911
H 13.848 31.463 33.829
H 13.874 30.874 35.518
H 12.608 31.901 34.94 
C 13.916 34.304 34.659
H 12.843 34.193 34.394
H 14.275 34.241 33.665
C 14.26  35.708 35.258
H 14.699 35.691 36.272
H 13.274 36.244 35.37 
C 15.177 36.563 34.328
H 14.504 37.245 33.876
H 15.645 35.953 33.552
C 16.343 37.337 35.068
H 16.82  36.569 35.669
C 15.672 38.533 35.794
H 15.331 39.224 35.026
H 14.836 38.299 36.498
H 16.357 39.048 36.39 
C 17.475 37.893 34.078
H 18.116 38.601 34.592
H 16.916 38.635 33.404
C 18.294 36.954 33.197
H 18.262 35.973 33.602
H 19.293 37.347 33.137
C 17.865 36.798 31.787
H 18.579 37.274 31.145
H 16.986 37.417 31.542
C 17.534 35.361 31.207
H 16.781 34.86  31.79 
C 18.693 34.344 31.152
H 19.572 34.683 30.545
H 19.023 34.018 32.109
H 18.364 33.374 30.755
C 16.932 35.402 29.795
H 16.587 34.434 29.593
H 16.134 36.16  29.728
H 17.782 35.571 29.107
