137

Mg 34.148 36.978 34.537
C 31.05  35.442 34.02 
C 35.531 34.126 33.539
H 36.096 33.211 33.277
C 37.061 38.529 34.897
H 37.971 39.066 35.075
C 32.412 39.672 35.853
H 31.927 40.618 36.148
N 33.397 35.065 33.675
C 32.105 34.756 33.417
C 31.951 33.338 32.775
H 31.27  32.722 33.303
C 33.409 32.815 33.008
H 33.812 32.443 32.07 
C 34.163 34.053 33.432
C 33.4   31.62  34.034
H 32.805 31.92  34.866
H 32.876 30.724 33.655
H 34.455 31.377 34.323
C 31.465 33.449 31.307
H 32.1   34.127 30.72 
H 30.45  33.915 31.276
C 31.473 32.064 30.605
H 32.398 32.057 30.015
H 31.634 31.258 31.391
C 30.256 31.593 29.853
O 30.288 31.209 28.671
O 29.112 31.709 30.606
N 36.033 36.43  34.113
C 36.401 35.171 33.879
C 37.877 35.084 34.059
C 38.371 36.389 34.359
C 37.114 37.133 34.518
C 38.681 33.8   33.689
H 39.14  33.439 34.576
H 38.278 32.964 33.217
H 39.379 34.128 32.979
C 39.711 36.895 34.602
H 39.914 37.972 34.591
C 40.776 36.222 34.944
H 40.684 35.107 34.998
H 41.78  36.552 35.112
N 34.657 38.904 35.095
C 35.934 39.358 35.143
C 35.912 40.739 35.654
C 34.571 41.049 35.935
C 33.778 39.854 35.626
C 37.191 41.498 35.908
H 37.075 42.589 36.095
H 37.741 41.128 36.768
H 37.777 41.408 35.   
C 34.095 42.327 36.558
H 33.32  42.168 37.334
H 34.855 42.837 37.168
C 33.487 43.253 35.529
H 33.333 44.242 35.997
H 34.259 43.392 34.76 
H 32.592 42.958 34.984
N 32.215 37.473 34.989
C 31.611 38.561 35.558
C 30.162 38.362 35.659
C 29.918 37.147 35.113
C 31.228 36.658 34.702
C 29.225 39.319 36.337
H 28.263 39.38  35.923
H 29.188 39.163 37.462
H 29.583 40.361 36.377
C 28.856 36.278 34.825
O 27.62  36.284 34.946
C 29.557 35.198 33.924
H 29.115 35.171 32.909
C 29.248 33.889 34.633
O 29.33  33.748 35.845
O 28.78  32.982 33.702
C 28.483 31.664 34.298
H 28.19  30.874 33.527
H 29.444 31.306 34.758
H 27.798 31.638 35.152
C 27.916 31.021 30.041
H 28.253 30.047 29.669
H 27.481 31.588 29.222
C 26.805 31.012 30.986
H 26.583 32.086 31.131
C 26.043 30.121 31.574
C 26.374 28.597 31.375
H 25.481 28.025 31.269
H 26.973 28.377 30.462
H 26.914 28.416 32.299
C 24.663 30.502 32.175
H 24.57  31.605 32.331
H 24.521 29.993 33.139
C 23.549 30.263 31.135
H 24.108 30.117 30.213
H 22.865 31.092 30.876
C 22.631 28.994 31.498
H 21.699 29.268 31.984
H 23.263 28.447 32.248
C 22.333 28.002 30.393
H 23.354 27.685 30.081
C 21.517 28.449 29.138
H 21.444 27.678 28.35 
H 20.461 28.679 29.455
H 22.105 29.325 28.794
C 21.748 26.71  30.987
H 22.366 26.351 31.835
H 21.856 25.867 30.224
C 20.292 26.655 31.452
H 19.737 26.097 30.702
H 19.837 27.651 31.434
C 19.992 26.177 32.924
H 20.93  26.123 33.53 
H 19.689 25.155 32.678
C 19.017 27.112 33.739
H 18.183 27.333 33.065
C 19.527 28.556 34.055
H 18.784 29.119 34.524
H 20.515 28.639 34.49 
H 19.776 29.062 33.194
C 18.658 26.46  35.093
H 18.234 27.289 35.75 
H 19.541 26.073 35.563
C 17.504 25.424 34.992
H 18.037 24.552 34.781
H 16.795 25.624 34.263
C 16.63  25.314 36.247
H 15.633 25.57  35.912
H 16.963 26.023 37.092
C 16.47  23.946 36.948
H 17.388 23.566 37.251
C 15.863 22.773 36.058
H 15.439 22.146 36.855
H 15.071 23.172 35.437
H 16.672 22.29  35.486
C 15.6   24.094 38.195
H 14.565 24.328 37.945
H 15.639 23.21  38.797
H 16.042 24.818 38.858
