137

Mg 34.139 31.547 35.201
C 32.434 29.368 33.075
C 36.874 31.294 33.059
H 37.845 31.225 32.519
C 35.958 33.267 37.532
H 36.545 33.832 38.237
C 31.512 31.248 37.419
H 30.621 31.253 38.073
N 34.556 30.559 33.271
C 33.679 29.781 32.564
C 34.307 29.201 31.277
H 34.274 28.146 31.257
C 35.82  29.669 31.444
H 36.042 30.239 30.589
C 35.778 30.559 32.676
C 36.923 28.499 31.62 
H 36.897 27.989 32.561
H 36.708 27.91  30.734
H 37.908 28.942 31.439
C 33.555 29.744 30.048
H 33.947 30.744 29.805
H 32.558 30.073 30.241
C 33.556 28.919 28.715
H 34.023 29.436 27.949
H 34.053 27.935 28.849
C 32.178 28.825 28.105
O 31.811 29.225 27.023
O 31.351 28.15  28.962
N 36.063 32.342 35.185
C 37.063 32.035 34.275
C 38.268 32.723 34.644
C 37.989 33.31  35.951
C 36.587 33.026 36.267
C 39.572 32.764 33.877
H 40.006 33.749 33.988
H 40.19  31.856 34.167
H 39.351 32.655 32.85 
C 38.839 34.103 36.792
H 38.331 34.815 37.424
C 40.171 33.951 37.017
H 40.719 33.12  36.527
H 40.782 34.44  37.699
N 33.862 32.147 37.174
C 34.665 32.908 37.932
C 33.977 33.22  39.172
C 32.663 32.691 39.105
C 32.64  31.965 37.848
C 34.482 33.976 40.356
H 34.838 34.959 40.097
H 33.856 34.07  41.142
H 35.443 33.479 40.551
C 31.516 32.856 40.144
H 31.001 31.878 40.261
H 31.969 33.095 41.116
C 30.514 33.93  39.722
H 30.058 34.307 40.616
H 31.008 34.725 39.138
H 29.782 33.472 39.117
N 32.29  30.498 35.322
C 31.337 30.405 36.281
C 30.276 29.495 35.822
C 30.675 29.073 34.549
C 31.91  29.709 34.29 
C 29.104 29.219 36.536
H 28.979 28.126 36.586
H 29.063 29.615 37.551
H 28.2   29.706 36.115
C 30.291 28.273 33.443
O 29.289 27.587 33.233
C 31.449 28.319 32.476
H 31.169 28.46  31.433
C 32.061 26.922 32.564
O 32.649 26.461 33.508
O 32.078 26.345 31.307
C 32.707 25.082 31.172
H 32.754 24.721 30.126
H 33.686 25.22  31.632
H 32.194 24.309 31.683
C 30.112 27.665 28.411
H 30.391 26.904 27.631
H 29.493 28.423 27.987
C 29.239 26.991 29.481
H 29.014 27.742 30.223
C 28.85  25.7   29.612
C 29.176 24.507 28.679
H 29.715 24.765 27.794
H 29.805 23.754 29.241
H 28.258 23.966 28.328
C 27.915 25.367 30.77 
H 27.823 26.289 31.359
H 28.425 24.645 31.375
C 26.48  24.886 30.367
H 26.588 23.866 30.248
H 26.415 25.335 29.367
C 25.385 25.251 31.313
H 24.716 25.873 30.785
H 25.895 25.726 32.243
C 24.547 24.12  31.932
H 25.16  23.26  32.288
C 23.52  23.633 30.772
H 23.103 22.628 31.219
H 22.745 24.42  30.724
H 23.909 23.495 29.792
C 23.922 24.585 33.175
H 24.701 24.555 33.968
H 23.25  23.792 33.471
C 23.193 25.992 33.185
H 22.143 25.775 33.319
H 23.308 26.63  32.304
C 23.559 26.902 34.392
H 23.478 27.918 34.097
H 24.557 26.591 34.668
C 22.735 26.838 35.653
H 21.71  27.019 35.292
C 23.072 28.048 36.507
H 22.613 28.913 36.168
H 22.756 27.88  37.525
H 24.175 28.263 36.508
C 22.787 25.451 36.44 
H 23.72  25.394 36.967
H 22.743 24.538 35.866
C 21.657 25.265 37.466
H 21.415 24.218 37.348
H 20.777 25.893 37.274
C 21.924 25.511 38.976
H 21.265 26.301 39.314
H 22.98  25.828 39.06 
C 21.706 24.305 39.945
H 22.367 23.505 39.556
C 20.302 23.639 39.77 
H 20.047 22.987 40.567
H 19.528 24.398 39.834
H 20.15  23.088 38.91 
C 22.063 24.677 41.402
H 21.859 23.737 41.984
H 23.049 25.003 41.501
H 21.359 25.418 41.817
