137

Mg 36.426 32.831 34.736
C 33.65  30.976 34.038
C 37.884 31.516 31.872
H 38.46  31.102 31.085
C 39.414 34.167 35.673
H 40.327 34.692 35.77 
C 35.137 33.579 37.961
H 34.678 33.99  38.892
N 35.785 31.533 33.096
C 34.556 30.959 32.993
C 34.355 30.314 31.586
H 34.118 29.251 31.722
C 35.828 30.19  31.037
H 35.907 30.676 30.077
C 36.527 31.123 32.057
C 36.411 28.772 31.144
H 37.407 28.826 30.695
H 36.433 28.574 32.208
H 35.835 27.927 30.644
C 33.388 31.043 30.579
H 33.656 32.078 30.513
H 32.412 30.921 31.031
C 33.279 30.54  29.144
H 33.354 31.295 28.416
H 34.129 29.886 28.909
C 31.906 29.927 28.91 
O 31.609 28.742 29.111
O 31.063 30.832 28.395
N 38.184 32.995 33.867
C 38.565 32.368 32.673
C 39.913 32.785 32.402
C 40.358 33.55  33.508
C 39.29  33.542 34.44 
C 40.731 32.476 31.14 
H 41.788 32.8   31.195
H 40.774 31.416 31.058
H 40.118 32.846 30.25 
C 41.722 33.999 33.763
H 42.125 34.748 33.086
C 42.447 33.534 34.793
H 42.034 32.781 35.476
H 43.429 33.91  35.019
N 37.192 33.643 36.552
C 38.393 34.247 36.666
C 38.559 34.883 38.003
C 37.286 34.759 38.596
C 36.467 33.936 37.702
C 39.874 35.474 38.46 
H 40.26  35.094 39.411
H 40.753 35.399 37.735
H 39.694 36.572 38.539
C 36.907 35.473 39.807
H 36.511 34.777 40.469
H 37.766 35.917 40.266
C 35.99  36.677 39.474
H 36.61  37.387 38.824
H 35.146 36.329 38.868
H 35.636 37.251 40.343
N 34.738 32.4   35.847
C 34.326 32.763 37.096
C 33.069 32.185 37.391
C 32.721 31.55  36.178
C 33.774 31.686 35.278
C 32.194 32.241 38.646
H 32.84  31.974 39.506
H 31.874 33.256 38.747
H 31.314 31.586 38.517
C 31.706 30.716 35.528
O 30.665 30.357 36.037
C 32.215 30.428 34.123
H 31.595 30.933 33.429
C 32.176 28.955 33.855
O 32.749 28.165 34.584
O 31.383 28.703 32.723
C 31.365 27.306 32.184
H 31.12  26.706 32.997
H 30.583 27.079 31.35 
H 32.372 27.055 31.787
C 29.824 30.181 28.002
H 29.176 29.808 28.787
H 29.872 29.532 27.121
C 29.128 31.456 27.484
H 29.836 32.032 26.876
C 27.843 31.91  27.701
C 26.801 31.142 28.455
H 26.954 30.055 28.541
H 26.809 31.636 29.442
H 25.884 31.271 27.928
C 27.446 33.219 27.09 
H 28.323 33.743 26.683
H 27.088 33.895 27.9  
C 26.365 33.145 26.007
H 26.264 32.136 25.756
H 26.908 33.687 25.206
C 25.025 33.774 26.507
H 24.686 33.689 27.532
H 24.256 33.155 26.002
C 24.714 35.268 26.102
H 24.726 35.292 25.034
C 25.704 36.243 26.621
H 25.764 36.114 27.722
H 26.666 35.916 26.228
H 25.574 37.276 26.194
C 23.251 35.686 26.608
H 23.175 36.758 26.562
H 23.104 35.37  27.604
C 22.033 35.144 25.774
H 22.396 34.483 25.023
H 21.505 36.041 25.339
C 20.974 34.522 26.669
H 19.949 34.728 26.441
H 21.2   34.891 27.679
C 21.022 32.96  26.824
H 22.05  32.555 26.822
C 20.449 32.184 25.662
H 20.693 31.197 25.857
H 19.386 32.248 25.481
H 21.058 32.577 24.772
C 20.487 32.385 28.141
H 20.539 31.298 28.153
H 19.471 32.721 28.315
C 21.158 32.821 29.463
H 20.602 33.729 29.82 
H 22.19  33.172 29.503
C 21.102 31.853 30.641
H 20.673 30.903 30.24 
H 20.293 32.302 31.207
C 22.396 31.768 31.54 
H 22.726 32.783 31.652
C 23.6  31.03 30.8 
H 23.645 31.559 29.811
H 24.522 31.28  31.318
H 23.514 29.975 30.755
C 22.175 30.854 32.777
H 21.968 29.835 32.427
H 23.151 30.687 33.247
H 21.483 31.331 33.552
