137

Mg 19.144 23.742 28.973
C 22.205 23.791 30.708
C 18.052 26.388 30.848
H 17.678 27.209 31.431
C 16.221 23.803 27.265
H 15.174 23.723 26.882
C 20.312 21.067 27.24 
H 20.655 20.185 26.661
N 20.051 24.891 30.536
C 21.309 24.753 31.152
C 21.684 25.972 32.   
H 22.008 25.566 32.994
C 20.306 26.677 32.151
H 20.438 27.658 31.703
C 19.363 25.903 31.175
C 19.753 26.753 33.629
H 18.75  26.923 33.4  
H 19.878 25.944 34.332
H 20.209 27.648 34.034
C 22.926 26.842 31.534
H 22.709 27.157 30.56 
H 23.782 26.231 31.507
C 23.296 27.902 32.589
H 22.411 28.205 33.141
H 24.06  27.458 33.207
C 23.89  29.216 31.983
O 25.037 29.303 31.555
O 22.959 30.282 32.053
N 17.419 24.897 29.065
C 17.185 25.995 29.837
C 15.916 26.722 29.479
C 15.393 25.961 28.373
C 16.382 24.815 28.167
C 15.406 27.973 30.085
H 15.568 28.735 29.384
H 14.402 28.02  30.137
H 15.785 28.182 31.098
C 14.147 26.2   27.657
H 13.316 26.741 28.086
C 14.03  26.011 26.285
H 14.839 25.579 25.705
H 13.132 26.303 25.695
N 18.341 22.633 27.444
C 17.128 22.815 26.922
C 16.976 21.769 25.9  
C 18.161 21.044 25.931
C 19.005 21.568 26.898
C 15.711 21.704 25.042
H 15.72  22.442 24.253
H 15.464 20.695 24.682
H 14.922 21.954 25.778
C 18.415 19.842 25.106
H 19.261 19.211 25.549
H 17.523 19.129 25.083
C 18.887 20.132 23.652
H 18.85  19.104 23.216
H 18.155 20.822 23.137
H 19.926 20.429 23.641
N 20.832 22.617 28.954
C 21.168 21.529 28.237
C 22.552 20.985 28.614
C 22.947 21.81  29.6  
C 21.857 22.78  29.793
C 23.311 19.895 27.908
H 24.343 19.975 28.045
H 23.09  18.967 28.35 
H 23.138 20.057 26.871
C 23.97  22.116 30.559
O 25.005 21.506 30.868
C 23.549 23.421 31.287
H 24.297 24.119 30.95 
C 23.487 23.257 32.797
O 22.737 22.59  33.429
O 24.479 23.994 33.399
C 24.241 24.347 34.85 
H 24.334 23.44  35.509
H 24.946 25.114 35.203
H 23.273 24.841 34.949
C 23.6   31.552 31.822
H 23.908 31.609 30.783
H 24.538 31.63  32.301
C 22.688 32.762 31.92 
H 22.302 33.047 30.966
C 22.385 33.512 33.037
C 22.725 33.028 34.427
H 23.766 32.987 34.61 
H 22.296 33.746 35.139
H 22.408 32.039 34.673
C 21.504 34.682 32.981
H 21.918 35.149 32.065
H 21.667 35.37  33.765
C 20.069 34.483 32.615
H 19.809 33.471 32.92 
H 20.036 34.634 31.529
C 19.133 35.485 33.233
H 19.322 36.451 32.78 
H 19.4   35.612 34.273
C 17.554 35.08  33.34 
H 17.462 34.263 34.077
C 17.082 34.384 32.118
H 16.944 35.073 31.295
H 17.675 33.52  31.769
H 16.102 34.027 32.365
C 16.513 36.181 33.783
H 15.569 35.744 33.962
H 16.308 36.889 33.021
C 16.917 36.976 35.08 
H 17.559 36.347 35.722
H 16.018 37.306 35.601
C 17.709 38.197 34.763
H 17.089 39.025 35.041
H 18.047 38.154 33.722
C 18.927 38.476 35.679
H 19.541 37.629 35.778
C 18.403 38.816 37.08 
H 19.278 38.869 37.766
H 17.996 39.835 37.156
H 17.655 38.11  37.333
C 19.95  39.531 35.017
H 20.581 39.899 35.768
H 19.27  40.384 34.614
C 20.953 38.872 33.996
H 20.986 37.765 34.108
H 21.982 39.266 34.254
C 20.511 39.442 32.616
H 20.948 40.459 32.5  
H 19.411 39.606 32.558
C 20.902 38.622 31.384
H 20.283 37.732 31.296
C 22.335 38.025 31.46 
H 22.5   37.455 30.517
H 23.16  38.805 31.534
H 22.379 37.301 32.276
C 20.617 39.341 29.994
H 21.403 40.091 29.88 
H 20.508 38.659 29.178
H 19.627 39.891 30.046
