137

Mg 37.484 27.674 34.941
C 34.032 27.943 35.19 
C 36.99  25.507 32.164
H 36.948 24.778 31.291
C 40.835 27.429 34.553
H 41.878 27.303 34.347
C 37.822 29.63  37.799
H 37.884 30.271 38.616
N 35.708 26.844 33.866
C 34.422 27.08  34.173
C 33.469 26.36  33.202
H 32.785 25.686 33.854
C 34.406 25.41  32.366
H 34.327 25.73  31.307
C 35.833 25.877 32.877
C 34.036 23.949 32.615
H 34.809 23.226 32.187
H 33.886 23.69  33.748
H 33.107 23.591 32.204
C 32.559 27.249 32.345
H 33.217 27.888 31.733
H 31.886 27.976 32.941
C 31.573 26.511 31.428
H 31.786 26.73  30.347
H 31.647 25.413 31.538
C 30.148 26.88  31.543
O 29.299 26.334 32.212
O 29.936 28.062 30.746
N 38.718 26.731 33.583
C 38.286 25.902 32.481
C 39.445 25.423 31.751
C 40.509 25.944 32.447
C 40.021 26.773 33.589
C 39.469 24.668 30.415
H 40.458 24.534 30.01 
H 39.02  23.679 30.451
H 38.961 25.325 29.731
C 42.018 25.794 32.009
H 42.688 26.678 31.885
C 42.579 24.615 31.751
H 42.058 23.649 31.834
H 43.541 24.546 31.232
N 39.1   28.411 36.016
C 40.484 28.152 35.695
C 41.292 28.83  36.737
C 40.38  29.499 37.614
C 39.032 29.207 37.15 
C 42.781 28.877 36.794
H 43.14  28.571 35.76 
H 43.131 29.906 37.039
H 43.14  28.165 37.415
C 40.714 30.334 38.823
H 39.988 30.106 39.643
H 41.694 30.172 39.055
C 40.472 31.822 38.496
H 40.666 32.394 39.383
H 41.265 32.035 37.849
H 39.482 32.007 38.044
N 36.259 28.601 36.258
C 36.513 29.291 37.387
C 35.267 29.664 38.059
C 34.266 29.169 37.187
C 34.939 28.58  36.077
C 35.087 30.316 39.384
H 36.082 30.371 39.872
H 34.749 31.302 39.31 
H 34.414 29.708 40.018
C 32.801 28.993 37.007
O 31.831 29.262 37.699
C 32.682 28.233 35.665
H 32.076 28.87  34.997
C 31.843 27.09  36.014
O 32.239 26.064 36.44 
O 30.618 27.151 35.472
C 29.91 25.88 35.45
H 29.042 26.179 34.856
H 30.436 25.085 34.92 
H 29.55  25.632 36.388
C 28.595 28.607 30.788
H 28.324 28.771 31.787
H 27.905 27.909 30.334
C 28.475 29.719 29.846
H 29.14  29.691 28.963
C 27.708 30.832 29.991
C 26.645 31.173 31.129
H 26.93  32.06  31.687
H 25.735 31.447 30.521
H 26.45  30.361 31.869
C 27.866 31.93  28.982
H 28.902 31.921 28.53 
H 27.929 32.905 29.531
C 26.7   32.029 28.007
H 26.112 32.934 28.232
H 26.083 31.066 28.013
C 27.255 32.225 26.578
H 28.332 32.568 26.575
H 26.752 33.009 26.121
C 27.056 31.1   25.569
H 25.964 30.826 25.56 
C 27.667 29.786 26.067
H 27.496 29.049 25.278
H 28.758 29.879 26.203
H 27.177 29.522 27.06 
C 27.521 31.548 24.149
H 27.412 30.799 23.366
H 28.636 31.727 24.094
C 26.855 32.765 23.564
H 27.53  33.593 23.479
H 25.948 33.096 24.168
C 26.393 32.493 22.069
H 25.347 32.232 22.067
H 26.891 31.67  21.531
C 26.453 33.728 21.15 
H 27.42  34.157 21.058
C 25.393 34.811 21.593
H 25.524 35.623 20.847
H 24.352 34.515 21.519
H 25.568 35.15  22.598
C 26.079 33.44  19.641
H 25.775 34.354 19.136
H 25.265 32.728 19.691
C 27.196 32.774 18.817
H 26.958 31.668 18.852
H 28.153 32.795 19.341
C 27.406 33.356 17.439
H 28.43  33.5   17.122
H 26.878 34.359 17.382
C 26.787 32.537 16.197
H 25.741 32.427 16.382
C 27.505 31.18  15.974
H 27.296 30.733 15.043
H 28.607 31.152 15.862
H 27.217 30.447 16.772
C 26.916 33.254 14.819
H 26.359 32.628 14.087
H 26.448 34.202 14.823
H 27.988 33.347 14.459
