137

Mg 35.965 35.007 35.692
C 32.501 35.497 35.644
C 35.517 33.118 32.956
H 35.329 32.361 32.199
C 39.252 34.369 35.802
H 40.316 34.166 35.686
C 36.175 36.777 38.675
H 36.156 37.242 39.678
N 34.189 34.461 34.388
C 32.938 34.862 34.505
C 32.126 34.361 33.257
H 31.216 33.762 33.531
C 33.125 33.459 32.528
H 33.311 33.882 31.487
C 34.401 33.677 33.339
C 32.637 31.99  32.427
H 31.546 31.979 32.362
H 33.183 31.52  31.608
H 32.797 31.555 33.37 
C 31.669 35.618 32.552
H 32.461 36.291 32.32 
H 30.936 36.096 33.242
C 30.942 35.155 31.198
H 31.516 35.43  30.306
H 30.791 34.113 31.1  
C 29.462 35.595 30.933
O 29.045 35.756 29.77 
O 28.743 35.837 32.055
N 37.208 33.942 34.521
C 36.832 33.155 33.475
C 37.98  32.368 33.002
C 39.074 32.77  33.733
C 38.545 33.765 34.746
C 37.8   31.215 31.857
H 37.806 31.752 30.861
H 38.579 30.545 31.961
H 36.877 30.614 31.904
C 40.421 32.249 33.745
H 40.923 32.141 34.726
C 41.057 31.807 32.623
H 40.597 32.01  31.649
H 42.062 31.324 32.523
N 37.479 35.56  37.023
C 38.837 35.16  36.86 
C 39.626 35.718 37.935
C 38.713 36.387 38.715
C 37.383 36.157 38.195
C 41.127 35.662 38.013
H 41.459 36.416 38.772
H 41.422 34.671 38.339
H 41.563 35.904 37.054
C 38.933 37.219 39.95 
H 38.338 36.9   40.834
H 39.96  37.268 40.171
C 38.53  38.673 39.888
H 37.439 38.819 39.737
H 38.776 39.273 40.794
H 38.996 39.139 39.004
N 34.681 35.937 36.873
C 34.929 36.637 38.025
C 33.703 37.334 38.395
C 32.667 36.756 37.612
C 33.356 35.995 36.647
C 33.567 38.246 39.506
H 33.721 37.897 40.514
H 34.332 39.    39.418
H 32.613 38.846 39.362
C 31.223 36.626 37.431
O 30.311 37.059 38.126
C 31.067 35.765 36.105
H 30.558 36.397 35.463
C 30.267 34.616 36.343
O 30.324 33.893 37.295
O 29.462 34.345 35.288
C 28.607 33.222 35.415
H 27.821 33.534 36.069
H 28.116 33.001 34.469
H 29.064 32.379 35.868
C 27.307 36.063 31.823
H 26.79  35.382 31.144
H 27.173 37.042 31.555
C 26.748 36.022 33.283
H 27.157 36.718 34.021
C 25.824 35.147 33.808
C 25.194 34.018 33.031
H 24.931 33.286 33.691
H 24.359 34.452 32.493
H 25.852 33.746 32.232
C 25.333 35.206 35.236
H 26.097 35.78  35.831
H 25.407 34.19  35.685
C 23.955 35.842 35.699
H 23.703 36.567 34.916
H 24.269 36.473 36.57 
C 22.812 34.829 36.008
H 22.662 34.888 37.104
H 23.127 33.805 35.983
C 21.542 34.867 35.059
H 21.759 34.891 33.998
C 20.737 36.189 35.241
H 19.848 36.166 34.663
H 20.579 36.512 36.243
H 21.247 37.015 34.817
C 20.655 33.615 35.261
H 21.343 32.757 35.151
H 20.032 33.669 34.321
C 19.796 33.513 36.489
H 18.829 33.954 36.333
H 20.254 34.044 37.296
C 19.529 32.042 36.927
H 19.797 31.271 36.199
H 18.473 31.895 36.967
C 20.25  31.575 38.173
H 20.336 32.417 38.781
C 21.644 31.004 37.887
H 22.228 31.758 37.376
H 22.154 30.752 38.811
H 21.642 30.095 37.267
C 19.495 30.436 39.035
H 20.149 30.234 39.887
H 19.65  29.571 38.358
C 18.082 30.705 39.591
H 17.842 31.761 39.341
H 18.106 30.739 40.722
C 16.951 29.857 38.954
H 17.294 29.223 38.144
H 16.16  30.573 38.534
C 16.283 28.918 39.916
H 15.969 29.604 40.674
C 17.096 27.772 40.557
H 16.582 27.402 41.409
H 17.243 27.1   39.741
H 18.11  28.147 40.862
C 15.132 28.221 39.133
H 14.748 27.359 39.734
H 14.305 28.966 38.923
H 15.474 27.725 38.257
