137

Mg 21.039 22.28  31.685
C 24.008 20.859 31.161
C 22.61  24.985 33.089
H 23.109 25.884 33.465
C 18.052 24.018 31.891
H 17.095 24.438 32.194
C 19.398 19.666 30.218
H 18.819 18.883 29.87 
N 23.065 22.958 31.852
C 24.131 22.181 31.632
C 25.43  22.945 31.897
H 26.132 22.366 32.441
C 24.925 24.18  32.645
H 25.15  25.194 32.23 
C 23.436 24.02  32.569
C 25.496 24.119 34.106
H 25.195 23.206 34.607
H 26.599 24.152 34.064
H 25.134 24.976 34.731
C 26.163 23.29  30.558
H 25.552 24.002 29.983
H 26.289 22.395 29.911
C 27.544 23.915 30.772
H 27.851 23.874 31.85 
H 28.211 23.389 30.087
C 27.769 25.392 30.416
O 28.7   25.785 29.73 
O 26.737 26.129 30.871
N 20.343 24.183 32.469
C 21.171 25.111 33.011
C 20.371 26.255 33.414
C 19.026 25.989 33.067
C 19.072 24.656 32.476
C 20.951 27.586 33.982
H 21.977 27.461 34.515
H 21.022 28.393 33.248
H 20.165 27.813 34.65 
C 17.767 26.787 33.308
H 16.93  26.219 33.515
C 17.63  28.121 33.394
H 18.472 28.91  33.221
H 16.675 28.552 33.627
N 19.04  21.839 31.184
C 17.962 22.703 31.375
C 16.744 22.053 31.   
C 17.144 20.748 30.463
C 18.595 20.698 30.681
C 15.395 22.69  30.983
H 15.003 22.528 31.974
H 15.359 23.812 30.837
H 14.855 22.102 30.193
C 16.339 19.776 29.634
H 15.599 20.28  29.012
H 16.864 19.287 28.814
C 15.547 18.804 30.532
H 14.879 18.086 30.017
H 16.274 18.25  31.059
H 15.109 19.415 31.25 
N 21.578 20.695 30.737
C 20.813 19.638 30.311
C 21.672 18.532 29.91 
C 22.937 18.906 30.401
C 22.82  20.272 30.768
C 21.266 17.238 29.273
H 21.248 17.459 28.168
H 21.928 16.373 29.403
H 20.296 16.935 29.52 
C 24.339 18.525 30.602
O 24.926 17.463 30.522
C 25.066 19.718 31.18 
H 26.065 19.914 30.66 
C 25.437 19.268 32.532
O 24.637 19.115 33.434
O 26.772 19.087 32.654
C 27.104 18.373 33.895
H 28.156 18.059 33.829
H 27.05  18.973 34.818
H 26.408 17.47  34.082
C 26.83  27.573 30.497
H 26.973 27.616 29.413
H 27.624 28.164 30.882
C 25.547 28.253 30.936
H 25.587 28.788 31.886
C 24.405 28.232 30.209
C 24.126 27.46  28.997
H 25.082 26.997 28.679
H 23.384 26.677 29.186
H 23.677 28.127 28.286
C 23.165 28.974 30.765
H 23.194 28.765 31.891
H 22.321 28.429 30.465
C 23.115 30.473 30.431
H 22.861 30.758 29.35 
H 24.142 30.883 30.502
C 22.145 31.225 31.356
H 21.786 30.5   32.016
H 21.347 31.627 30.699
C 22.699 32.38  32.259
H 23.189 33.058 31.483
C 23.852 31.904 33.256
H 23.47  31.462 34.195
H 24.416 31.204 32.654
H 24.53  32.777 33.473
C 21.612 33.154 33.074
H 22.12  33.462 33.947
H 20.874 32.421 33.421
C 20.84  34.276 32.382
H 19.841 34.034 32.467
H 21.091 34.368 31.322
C 21.154 35.653 33.021
H 21.848 35.655 33.868
H 20.272 35.905 33.581
C 21.555 36.674 31.944
H 20.827 36.628 31.086
C 23.034 36.401 31.385
H 23.86  36.478 32.145
H 23.127 35.299 31.151
H 23.175 36.852 30.473
C 21.326 38.134 32.381
H 21.92  38.42  33.324
H 20.302 38.101 32.718
C 21.518 39.185 31.27 
H 20.616 39.897 31.264
H 21.628 38.642 30.296
C 22.796 40.    31.506
H 23.631 39.462 31.041
H 22.986 39.93  32.536
C 22.826 41.486 31.103
H 22.514 41.59  30.047
C 24.267 41.914 31.079
H 24.22  42.849 30.505
H 24.627 42.188 32.076
H 24.914 41.278 30.492
C 22.033 42.387 32.054
H 22.393 42.372 33.077
H 22.144 43.411 31.637
H 20.978 42.185 32.056
