137

Mg 20.082 18.958 22.777
C 20.843 21.976 21.163
C 19.446 20.762 25.687
H 19.245 21.408 26.552
C 18.831 16.25  24.319
H 18.511 15.27  24.848
C 20.037 17.492 19.797
H 19.977 16.934 18.85 
N 20.161 21.131 23.33 
C 20.598 22.156 22.551
C 20.749 23.512 23.368
H 21.749 23.743 23.382
C 20.292 23.068 24.821
H 19.41  23.629 25.053
C 19.955 21.516 24.635
C 21.423 23.309 25.826
H 21.658 24.332 25.747
H 21.041 23.23  26.787
H 22.34  22.698 25.732
C 19.934 24.663 22.719
H 18.885 24.413 22.65 
H 20.31  24.927 21.774
C 19.888 26.028 23.47 
H 19.396 26.673 22.772
H 19.322 26.117 24.391
C 21.141 26.824 23.765
O 22.229 26.378 24.122
O 20.943 28.154 23.433
N 19.396 18.551 24.712
C 19.184 19.448 25.765
C 18.702 18.772 26.934
C 18.521 17.439 26.564
C 18.957 17.374 25.16 
C 18.41  19.509 28.188
H 17.72  20.384 27.986
H 17.885 18.825 28.862
H 19.345 19.93  28.588
C 17.917 16.278 27.262
H 18.375 15.284 27.156
C 16.809 16.331 28.079
H 16.225 17.272 28.255
H 16.549 15.409 28.644
N 19.682 17.044 22.173
C 19.2  16.06 22.94
C 18.999 14.842 22.138
C 19.371 15.185 20.795
C 19.715 16.66  20.854
C 18.283 13.6   22.628
H 19.032 12.784 23.1  
H 17.524 13.842 23.419
H 17.665 13.232 21.793
C 19.37  14.316 19.565
H 18.464 14.504 19.013
H 20.184 14.658 18.958
C 19.473 12.825 19.788
H 20.345 12.588 20.432
H 18.53  12.433 20.15 
H 19.642 12.453 18.816
N 20.513 19.525 20.862
C 20.451 18.812 19.682
C 20.719 19.692 18.526
C 20.965 20.918 19.071
C 20.779 20.782 20.48 
C 20.977 19.251 17.09 
H 20.1   19.489 16.582
H 21.742 19.815 16.688
H 21.069 18.149 17.063
C 21.394 22.266 18.819
O 21.671 22.791 17.736
C 21.308 23.028 20.104
H 20.631 23.891 19.98 
C 22.67  23.329 20.336
O 23.618 22.56  20.408
O 22.788 24.664 20.601
C 24.107 25.049 20.971
H 24.632 24.314 21.63 
H 24.752 25.206 20.079
H 24.089 26.065 21.346
C 22.154 28.861 23.387
H 22.968 28.309 22.962
H 22.291 29.147 24.384
C 21.832 30.055 22.411
H 21.849 29.814 21.33 
C 21.511 31.319 22.781
C 21.268 31.812 24.199
H 21.517 32.895 24.343
H 20.228 31.518 24.347
H 21.828 31.193 24.878
C 21.005 32.281 21.754
H 20.08  32.639 22.189
H 20.73  31.678 20.898
C 21.944 33.474 21.382
H 22.756 33.268 20.647
H 22.43  33.718 22.319
C 21.111 34.621 20.861
H 20.107 34.378 20.724
H 21.547 34.794 19.905
C 21.217 35.918 21.739
H 22.25  35.922 22.049
C 20.343 35.801 22.942
H 19.278 35.791 22.579
H 20.528 34.895 23.581
H 20.471 36.711 23.562
C 21.079 37.298 21.009
H 21.427 38.129 21.698
H 20.09  37.525 20.659
C 21.782 37.571 19.629
H 21.091 37.224 18.856
H 22.693 36.971 19.633
C 22.188 39.008 19.358
H 23.214 39.046 19.062
H 21.915 39.635 20.216
C 21.373 39.682 18.222
H 21.312 38.944 17.334
C 22.007 40.959 17.697
H 22.892 40.596 17.139
H 21.291 41.621 17.135
H 22.354 41.554 18.537
C 19.912 39.96  18.63 
H 19.847 40.756 19.385
H 19.513 39.121 19.067
C 18.854 40.238 17.549
H 18.211 39.328 17.654
H 19.296 40.146 16.536
C 18.029 41.55  17.689
H 18.277 42.218 16.829
H 18.274 42.037 18.629
C 16.526 41.327 17.649
H 16.271 40.536 18.295
C 16.154 40.811 16.268
H 16.626 39.864 16.102
H 15.034 40.668 16.287
H 16.428 41.44  15.45 
C 15.735 42.579 18.104
H 16.325 43.368 18.598
H 15.306 43.046 17.209
H 14.997 42.269 18.807
