137

Mg 28.81  30.411 35.21 
C 28.024 29.885 38.607
C 25.554 29.761 34.491
H 24.556 29.413 34.205
C 29.437 31.306 32.081
H 29.685 31.629 31.08 
C 32.058 31.34  36.152
H 33.066 31.494 36.542
N 27.098 29.715 36.385
C 26.956 29.632 37.806
C 25.543 29.052 38.111
H 25.752 28.081 38.542
C 24.847 28.871 36.672
H 23.916 29.38  36.543
C 25.884 29.576 35.796
C 24.487 27.409 36.256
H 23.826 27.001 37.093
H 23.952 27.428 35.323
H 25.377 26.766 36.14 
C 24.758 30.037 39.04 
H 24.439 30.996 38.57 
H 25.424 30.395 39.846
C 23.503 29.456 39.622
H 23.392 28.426 39.356
H 23.793 29.565 40.763
C 22.169 30.15  39.428
O 21.678 30.977 40.175
O 21.678 30.03  38.145
N 27.766 30.362 33.532
C 26.386 30.123 33.407
C 25.972 30.24  31.962
C 27.109 30.672 31.299
C 28.182 30.758 32.294
C 24.499 30.197 31.491
H 23.787 30.9   31.956
H 24.401 30.325 30.427
H 24.229 29.151 31.72 
C 27.287 31.106 29.858
H 28.18  30.734 29.438
C 26.563 32.013 29.143
H 25.647 32.421 29.524
H 26.876 32.398 28.093
N 30.426 31.063 34.222
C 30.526 31.49  32.935
C 31.885 31.954 32.614
C 32.589 31.844 33.826
C 31.673 31.375 34.843
C 32.346 32.456 31.287
H 31.785 33.365 31.127
H 33.465 32.63  31.326
H 32.114 31.783 30.653
C 34.071 32.071 34.173
H 34.494 31.218 34.701
H 34.651 32.239 33.276
C 34.229 33.458 34.944
H 33.745 34.307 34.321
H 33.676 33.357 35.849
H 35.268 33.745 35.158
N 29.771 30.669 37.004
C 31.126 30.978 37.216
C 31.393 30.912 38.632
C 30.201 30.529 39.227
C 29.232 30.425 38.227
C 32.749 31.104 39.296
H 32.725 31.809 40.146
H 33.17  30.145 39.623
H 33.463 31.611 38.583
C 29.532 30.227 40.477
O 29.957 30.299 41.618
C 28.068 29.87  40.135
H 27.438 30.654 40.716
C 27.722 28.535 40.647
O 28.334 27.53  40.394
O 26.584 28.573 41.44 
C 25.976 27.227 41.619
H 25.208 27.388 42.356
H 25.534 27.02  40.631
H 26.614 26.357 41.809
C 20.584 30.861 37.642
H 20.68  31.869 37.899
H 19.675 30.442 38.045
C 20.784 30.621 36.186
H 21.24  29.628 35.936
C 20.445 31.437 35.17 
C 19.647 32.676 35.365
H 18.636 32.235 35.337
H 19.848 33.091 36.317
H 19.812 33.374 34.511
C 20.736 30.911 33.712
H 21.552 30.228 33.739
H 21.138 31.778 33.207
C 19.602 30.167 32.862
H 18.7   30.543 33.302
H 19.416 29.135 33.072
C 19.786 30.363 31.336
H 20.818 30.457 31.04 
H 19.244 31.272 31.188
C 19.3   29.24  30.424
H 19.784 28.294 30.739
C 19.555 29.416 28.942
H 20.573 29.518 28.799
H 19.194 28.582 28.352
H 19.09  30.242 28.502
C 17.838 28.874 30.742
H 17.765 28.54  31.757
H 17.676 27.904 30.271
C 16.727 29.915 30.523
H 17.227 30.79  30.14 
H 16.136 30.195 31.424
C 15.701 29.525 29.459
H 14.745 29.356 29.972
H 16.073 28.539 29.012
C 15.437 30.531 28.333
H 16.34  30.838 27.863
C 14.738 31.845 28.82 
H 13.7   31.85  28.797
H 15.092 32.036 29.827
H 15.026 32.519 28.034
C 14.588 29.828 27.242
H 13.647 29.639 27.677
H 14.827 28.858 26.856
C 14.478 30.572 25.818
H 14.814 29.897 25.008
H 15.187 31.42  25.88 
C 12.962 31.049 25.535
H 12.432 31.173 26.505
H 12.407 30.326 24.97 
C 12.929 32.353 24.626
H 13.574 32.946 25.2  
C 11.439 32.951 24.617
H 11.262 32.901 25.667
H 11.56  34.025 24.436
H 10.668 32.5   23.946
C 13.57  32.107 23.218
H 13.59  33.018 22.69 
H 14.457 31.535 23.351
H 12.908 31.495 22.58 
