137

Mg 22.886 19.916 28.268
C 22.753 18.433 25.26 
C 25.55  21.686 27.317
H 26.519 22.192 26.932
C 22.911 21.61  31.267
H 22.975 22.028 32.265
C 20.546 17.826 29.521
H 19.794 17.095 29.888
N 24.19  19.886 26.471
C 23.895 19.258 25.346
C 24.948 19.519 24.263
H 25.316 18.614 23.906
C 26.008 20.488 25.052
H 26.095 21.481 24.552
C 25.163 20.773 26.333
C 27.33  19.784 25.288
H 27.298 18.911 25.983
H 27.523 19.481 24.305
H 28.087 20.476 25.514
C 24.284 20.303 23.123
H 23.889 21.248 23.488
H 23.395 19.776 22.806
C 25.153 20.509 21.86 
H 26.067 19.856 21.914
H 24.596 20.046 21.011
C 25.372 21.886 21.421
O 26.43  22.498 21.522
O 24.275 22.31  20.706
N 24.079 21.312 29.183
C 25.137 21.926 28.623
C 25.722 22.874 29.512
C 24.979 22.784 30.734
C 23.906 21.879 30.395
C 26.895 23.703 29.199
H 27.143 24.335 29.995
H 27.781 23.067 29.021
H 26.704 24.221 28.279
C 25.028 23.614 31.918
H 24.168 23.939 32.503
C 26.21  23.856 32.542
H 27.119 23.395 32.063
H 26.414 24.447 33.454
N 21.798 19.781 30.128
C 21.977 20.584 31.214
C 21.171 19.941 32.297
C 20.489 18.862 31.746
C 20.898 18.858 30.393
C 21.298 20.375 33.693
H 21.15  21.448 33.755
H 20.599 19.86  34.343
H 22.278 20.202 34.035
C 19.49  17.897 32.479
H 19.799 16.874 32.326
H 19.624 18.018 33.525
C 18.002 18.16  32.08 
H 17.808 17.69  31.12 
H 17.4   17.74  32.894
H 17.725 19.212 31.975
N 21.793 18.539 27.555
C 20.869 17.687 28.183
C 20.273 16.719 27.226
C 21.045 17.015 26.09 
C 21.957 18.057 26.335
C 19.108 15.804 27.327
H 19.293 14.963 28.05 
H 18.299 16.364 27.745
H 18.747 15.388 26.354
C 21.276 16.607 24.673
O 20.659 15.743 24.021
C 22.404 17.533 24.121
H 21.862 18.028 23.393
C 23.513 16.71  23.602
O 24.476 16.375 24.285
O 23.379 16.554 22.208
C 24.531 15.91  21.538
H 24.555 14.826 21.805
H 24.402 15.998 20.458
H 25.412 16.424 21.95 
C 24.208 23.709 20.212
H 23.785 23.615 19.237
H 25.234 24.211 20.093
C 23.429 24.467 21.193
H 23.711 24.213 22.159
C 22.561 25.484 20.912
C 21.859 25.693 19.627
H 21.975 26.722 19.261
H 22.177 24.957 18.951
H 20.844 25.642 19.758
C 21.965 26.369 22.019
H 22.31  25.976 22.958
H 20.875 26.223 22.015
C 22.272 27.884 22.025
H 21.3   28.398 22.185
H 22.657 28.251 21.043
C 23.284 28.249 23.125
H 23.81  27.363 23.392
H 22.575 28.698 23.811
C 24.344 29.329 22.768
H 23.898 30.16  22.282
C 25.543 28.726 21.916
H 26.249 28.273 22.604
H 25.062 28.074 21.174
H 26.028 29.564 21.364
C 25.051 29.792 24.11 
H 26.113 30.144 23.9  
H 25.072 28.865 24.778
C 24.17  30.946 24.83 
H 23.222 31.083 24.224
H 24.82  31.862 24.675
C 23.79  30.819 26.345
H 24.526 31.401 26.905
H 23.819 29.704 26.452
C 22.388 31.375 26.688
H 21.747 30.873 26.017
C 22.374 32.889 26.375
H 22.723 33.026 25.314
H 21.424 33.441 26.542
H 23.116 33.43  27.02 
C 22.024 30.933 28.134
H 22.593 31.625 28.828
H 22.398 29.972 28.364
C 20.552 31.011 28.602
H 19.912 31.242 27.768
H 20.294 31.869 29.244
C 20.031 29.658 29.247
H 20.894 29.019 29.334
H 19.309 29.205 28.515
C 19.343 29.744 30.692
H 20.079 30.166 31.397
C 18.964 28.399 31.237
H 18.855 28.546 32.354
H 18.025 27.993 30.772
H 19.764 27.674 31.194
C 18.141 30.77  30.735
H 17.354 30.476 30.003
H 17.664 30.679 31.656
H 18.408 31.798 30.589
