137

Mg 24.64  28.833 38.03 
C 22.828 26.25  39.271
C 21.76  30.05  36.644
H 20.768 30.391 36.297
C 26.189 31.773 37.441
H 26.649 32.689 37.261
C 27.483 27.482 39.493
H 28.344 27.006 39.984
N 22.56  28.345 38.038
C 21.996 27.225 38.674
C 20.472 27.141 38.479
H 20.298 26.183 37.933
C 20.191 28.324 37.52 
H 19.489 29.05  37.993
C 21.644 28.919 37.29 
C 19.518 27.872 36.161
H 19.104 28.672 35.458
H 20.209 27.287 35.55 
H 18.653 27.267 36.427
C 19.676 27.065 39.765
H 19.608 28.043 40.316
H 20.121 26.41  40.498
C 18.221 26.59  39.621
H 18.051 26.533 38.503
H 18.112 25.614 40.177
C 17.07  27.411 40.091
O 16.363 27.166 41.049
O 16.948 28.597 39.319
N 24.041 30.705 37.202
C 22.796 30.931 36.664
C 22.828 32.275 36.086
C 24.125 32.828 36.385
C 24.853 31.79  37.044
C 21.526 32.859 35.481
H 20.885 33.007 36.354
H 21.734 33.724 34.833
H 21.114 32.103 34.741
C 24.662 34.075 35.844
H 25.705 34.084 35.555
C 23.868 35.171 35.493
H 22.846 35.314 35.847
H 24.323 36.039 34.987
N 26.577 29.487 38.362
C 26.981 30.732 37.936
C 28.434 30.818 38.25 
C 28.887 29.597 38.817
C 27.624 28.807 39.004
C 29.244 31.98  37.779
H 29.956 31.404 37.214
H 28.744 32.64  37.072
H 29.634 32.56  38.622
C 30.317 29.261 39.173
H 30.669 28.37  38.701
H 30.971 30.055 38.822
C 30.575 29.031 40.689
H 29.764 28.481 41.121
H 31.537 28.548 40.806
H 30.611 30.076 41.066
N 25.126 27.245 39.048
C 26.279 26.741 39.494
C 26.105 25.468 40.073
C 24.779 25.246 40.019
C 24.198 26.365 39.368
C 27.179 24.583 40.571
H 27.843 24.357 39.795
H 27.822 25.14  41.304
H 26.911 23.589 40.922
C 23.747 24.295 40.419
O 23.892 23.235 41.048
C 22.403 24.905 39.93 
H 21.75  25.189 40.782
C 21.801 23.98  39.004
O 22.228 23.814 37.87 
O 20.628 23.589 39.49 
C 19.849 22.72  38.649
H 18.84  22.525 39.062
H 19.678 23.237 37.766
H 20.442 21.818 38.468
C 15.948 29.52  39.948
H 16.321 29.561 40.975
H 15.041 28.88  39.941
C 15.894 30.877 39.24 
H 16.277 30.773 38.215
C 15.604 32.166 39.671
C 15.121 32.596 41.017
H 15.095 31.763 41.724
H 15.851 33.373 41.37 
H 14.221 33.045 40.936
C 15.768 33.342 38.721
H 16.31  33.066 37.808
H 16.472 34.08  39.216
C 14.484 34.192 38.444
H 14.434 35.017 39.112
H 13.625 33.501 38.716
C 14.378 34.723 37.003
H 13.4   34.476 36.753
H 15.055 34.252 36.222
C 14.445 36.251 36.772
H 13.862 36.728 37.611
C 13.794 36.726 35.446
H 12.797 36.414 35.389
H 13.837 37.863 35.397
H 14.264 36.151 34.732
C 15.852 36.775 36.914
H 16.188 36.747 37.949
H 15.862 37.867 36.669
C 17.021 36.061 36.02 
H 16.56  35.541 35.155
H 17.593 35.33  36.62 
C 17.898 37.182 35.322
H 18.367 37.874 36.059
H 17.223 37.802 34.766
C 18.94  36.449 34.421
H 19.237 35.493 34.791
C 20.108 37.507 34.305
H 20.841 37.253 33.551
H 19.72  38.523 33.987
H 20.674 37.612 35.223
C 18.422 36.189 32.983
H 18.161 37.118 32.524
H 17.536 35.522 33.116
C 19.472 35.341 32.154
H 20.071 34.952 32.945
H 20.171 35.959 31.547
C 18.921 34.088 31.402
H 17.863 34.134 31.641
H 19.355 33.199 31.803
C 19.164 34.13  29.864
H 20.268 34.297 29.755
C 18.443 35.319 29.172
H 18.609 35.117 28.063
H 17.403 35.26  29.378
H 18.759 36.287 29.502
C 18.707 32.788 29.21 
H 19.165 32.561 28.243
H 19.049 31.916 29.86 
H 17.604 32.777 28.993
