137

Mg 35.057 31.953 36.529
C 32.901 30.802 33.935
C 37.705 31.436 34.366
H 38.512 31.3   33.647
C 37.12  32.655 38.98 
H 37.895 32.891 39.745
C 32.265 31.917 38.718
H 31.454 31.969 39.443
N 35.282 31.223 34.456
C 34.269 30.878 33.56 
C 34.865 30.492 32.141
H 34.463 29.5   31.969
C 36.423 30.4   32.446
H 36.884 30.999 31.709
C 36.501 31.048 33.852
C 37.055 28.984 32.337
H 36.63  28.431 33.149
H 36.611 28.565 31.442
H 38.123 29.048 32.298
C 34.319 31.513 31.029
H 35.118 32.271 30.897
H 33.427 32.038 31.371
C 34.086 30.775 29.74 
H 34.805 31.093 28.997
H 34.135 29.692 29.791
C 32.828 31.004 29.05 
O 32.569 32.099 28.524
O 31.903 29.951 29.174
N 37.098 32.155 36.602
C 38.026 31.881 35.617
C 39.362 32.156 36.125
C 39.242 32.458 37.473
C 37.758 32.467 37.717
C 40.591 31.996 35.187
H 41.138 31.111 35.426
H 40.238 32.153 34.173
H 41.311 32.782 35.392
C 40.377 32.651 38.417
H 40.101 32.894 39.469
C 41.688 32.323 38.202
H 42.181 31.884 37.311
H 42.337 32.427 39.094
N 34.801 32.229 38.522
C 35.812 32.456 39.387
C 35.324 32.675 40.807
C 33.927 32.353 40.667
C 33.603 32.193 39.249
C 36.17  32.964 42.081
H 36.812 33.776 41.797
H 35.536 33.34  42.871
H 36.803 32.092 42.299
C 32.913 32.184 41.811
H 32.174 31.435 41.559
H 33.447 31.834 42.66 
C 32.16  33.466 42.062
H 31.311 33.315 42.773
H 32.803 34.204 42.509
H 31.872 33.883 41.134
N 33.012 31.596 36.437
C 31.991 31.63  37.402
C 30.738 31.294 36.747
C 31.058 30.955 35.413
C 32.462 31.137 35.271
C 29.413 31.225 37.433
H 29.315 32.069 38.086
H 28.571 31.008 36.734
H 29.449 30.288 38.045
C 30.474 30.459 34.144
O 29.331 30.234 33.8  
C 31.696 30.267 33.226
H 31.56  30.796 32.259
C 31.627 28.774 33.143
O 31.671 27.953 34.033
O 31.42  28.475 31.847
C 31.174 27.079 31.436
H 31.839 26.257 31.97 
H 30.138 26.8   31.511
H 31.442 27.009 30.382
C 30.583 30.43  28.652
H 30.686 30.651 27.58 
H 30.215 31.279 29.229
C 29.555 29.296 28.937
H 29.305 29.209 30.035
C 29.018 28.415 28.121
C 29.365 28.312 26.707
H 28.453 27.976 26.155
H 29.548 29.284 26.2  
H 30.229 27.652 26.573
C 28.111 27.322 28.681
H 28.214 27.281 29.737
H 28.538 26.358 28.261
C 26.669 27.249 28.358
H 26.515 26.345 27.733
H 26.254 28.15  27.835
C 25.769 26.922 29.481
H 25.268 27.816 29.804
H 26.391 26.562 30.314
C 24.622 25.967 29.223
H 25.18  24.966 29.098
C 23.769 26.351 28.013
H 22.807 25.789 27.936
H 23.524 27.363 28.052
H 24.345 26.23  27.115
C 23.848 25.824 30.579
H 24.594 25.539 31.321
H 23.078 25.054 30.457
C 23.108 27.034 31.116
H 22.013 27.02  30.931
H 23.329 27.861 30.534
C 23.375 27.371 32.575
H 23.701 28.434 32.595
H 24.226 26.799 32.991
C 22.258 27.286 33.55 
H 21.375 27.787 33.102
C 22.469 28.066 34.799
H 22.911 29.031 34.742
H 21.514 28.238 35.393
H 23.133 27.409 35.422
C 21.834 25.848 33.824
H 22.726 25.373 34.293
H 21.62  25.285 32.927
C 20.515 25.644 34.688
H 19.786 25.033 34.162
H 20.062 26.602 34.806
C 20.741 24.953 36.046
H 20.358 25.553 36.87 
H 21.808 24.961 36.171
C 20.341 23.478 36.209
H 20.825 22.945 35.404
C 18.856 23.223 35.915
H 18.655 22.196 36.053
H 18.316 23.802 36.646
H 18.616 23.427 34.906
C 20.702 22.801 37.536
H 21.648 23.253 37.765
H 19.951 22.968 38.335
H 20.823 21.786 37.332
