137

Mg 21.08  18.356 26.667
C 21.486 17.717 23.209
C 24.056 20.115 26.637
H 25.014 20.635 26.665
C 20.908 18.597 29.978
H 20.937 18.771 31.059
C 18.422 16.073 26.708
H 17.527 15.519 26.899
N 22.583 18.79  25.066
C 22.582 18.472 23.728
C 23.723 19.172 22.983
H 24.339 18.431 22.473
C 24.587 19.909 24.146
H 24.439 20.966 24.02 
C 23.708 19.53  25.383
C 26.05  19.526 24.327
H 26.653 19.605 23.364
H 26.638 20.119 25.027
H 26.26  18.519 24.507
C 23.171 20.164 21.89 
H 22.496 20.813 22.476
H 22.706 19.515 21.143
C 24.295 20.883 21.029
H 25.197 20.299 21.213
H 23.926 20.878 20.022
C 24.706 22.301 21.367
O 25.792 22.727 21.473
O 23.625 22.989 21.795
N 22.236 19.322 28.02 
C 23.372 20.054 27.826
C 23.833 20.557 29.114
C 22.978 20.062 30.071
C 22.    19.25  29.351
C 24.972 21.458 29.318
H 24.69  22.222 30.07 
H 25.84  20.858 29.649
H 25.213 21.985 28.331
C 23.007 20.235 31.496
H 22.023 20.464 31.9  
C 24.102 20.173 32.303
H 25.035 19.89  31.807
H 24.024 20.32  33.38 
N 19.881 17.466 28.174
C 19.929 17.721 29.439
C 18.875 17.052 30.173
C 18.176 16.353 29.183
C 18.868 16.619 27.956
C 18.809 17.112 31.651
H 17.761 16.959 31.919
H 19.491 16.246 31.957
H 19.285 17.954 32.143
C 16.915 15.465 29.454
H 16.989 14.513 28.9  
H 16.815 15.231 30.536
C 15.625 16.149 28.97 
H 14.784 15.503 29.191
H 15.595 17.172 29.506
H 15.69  16.325 27.881
N 20.145 17.18  25.278
C 19.019 16.303 25.498
C 18.631 15.874 24.194
C 19.525 16.372 23.267
C 20.446 17.162 23.987
C 17.349 15.081 23.926
H 17.033 14.426 24.75 
H 16.573 15.728 23.559
H 17.579 14.342 23.127
C 19.788 16.54  21.831
O 19.088 16.277 20.868
C 21.176 17.243 21.782
H 21.037 18.107 21.087
C 22.087 16.213 21.309
O 22.74  15.416 21.996
O 22.043 16.181 19.946
C 22.755 15.064 19.32 
H 23.803 15.282 19.111
H 22.557 14.088 19.828
H 22.215 14.928 18.322
C 23.905 24.205 22.489
H 24.423 24.995 21.903
H 24.459 23.945 23.39 
C 22.496 24.632 22.805
H 21.995 24.304 23.699
C 21.891 25.573 22.113
C 22.269 26.193 20.765
H 21.443 26.224 20.054
H 22.605 27.257 20.912
H 23.108 25.643 20.279
C 20.611 26.172 22.668
H 20.198 25.553 23.487
H 19.891 26.196 21.83 
C 20.919 27.628 23.342
H 20.211 28.327 22.97 
H 21.904 28.045 23.068
C 20.811 27.446 24.842
H 21.044 26.467 25.261
H 19.803 27.573 25.102
C 21.729 28.524 25.693
H 21.685 29.452 25.171
C 23.22  27.946 25.861
H 23.859 28.578 26.457
H 23.315 26.892 26.211
H 23.679 27.922 24.888
C 21.094 28.73  27.173
H 21.792 29.36  27.722
H 21.115 27.758 27.667
C 19.618 29.283 27.213
H 19.024 28.384 27.   
H 19.393 29.896 26.34 
C 19.346 29.977 28.657
H 18.598 30.73  28.503
H 20.242 30.31  29.108
C 18.748 29.023 29.789
H 19.31  28.13  29.814
C 17.204 28.798 29.635
H 16.827 27.994 30.304
H 16.66  29.699 29.826
H 16.923 28.521 28.636
C 18.99  29.528 31.251
H 18.517 30.445 31.459
H 20.001 29.888 31.328
C 18.829 28.553 32.416
H 19.783 28.102 32.593
H 18.211 27.729 32.223
C 18.303 29.202 33.69 
H 17.527 28.51  34.069
H 17.822 30.14  33.407
C 19.259 29.53  34.822
H 19.628 28.549 35.231
C 18.494 30.167 35.961
H 17.739 29.507 36.261
H 19.179 30.25  36.776
H 17.928 31.051 35.676
C 20.371 30.415 34.392
H 21.05  30.467 35.228
H 20.893 30.073 33.482
H 20.031 31.436 34.462
