137

Mg 27.144 32.78  39.617
C 25.619 30.426 41.481
C 24.077 34.287 39.006
H 23.127 34.633 38.76 
C 28.773 35.497 38.274
H 29.227 36.403 37.918
C 30.304 31.459 40.543
H 31.302 31.117 40.862
N 25.123 32.45  40.239
C 24.696 31.358 40.92 
C 23.182 31.205 41.032
H 22.85  30.276 40.58 
C 22.723 32.367 40.192
H 22.022 32.958 40.739
C 24.011 33.13  39.76 
C 21.892 31.839 38.962
H 21.652 32.667 38.366
H 22.543 31.175 38.333
H 20.929 31.336 39.226
C 22.532 31.308 42.428
H 22.526 32.341 42.813
H 23.263 30.835 43.058
C 21.248 30.522 42.78 
H 21.056 29.725 42.065
H 21.313 30.068 43.754
C 19.993 31.39  42.883
O 19.251 31.496 43.877
O 19.827 32.07  41.705
N 26.534 34.611 38.797
C 25.196 35.088 38.668
C 25.242 36.429 38.158
C 26.62  36.725 37.947
C 27.368 35.574 38.347
C 24.071 37.335 37.868
H 23.177 36.757 38.124
H 24.186 38.094 38.588
H 23.968 37.715 36.858
C 27.167 37.955 37.418
H 26.859 38.85  37.828
C 28.039 37.994 36.423
H 28.297 37.014 35.964
H 28.485 38.948 36.079
N 29.224 33.325 39.329
C 29.661 34.498 38.748
C 31.082 34.611 38.701
C 31.58  33.43  39.328
C 30.34  32.656 39.754
C 31.908 35.833 38.241
H 32.837 35.916 38.805
H 32.163 35.529 37.198
H 31.345 36.806 38.237
C 33.007 32.952 39.623
H 33.165 31.885 39.574
H 33.716 33.541 39.052
C 33.503 33.113 41.079
H 33.01  32.391 41.777
H 34.543 32.892 41.162
H 33.305 34.111 41.499
N 27.865 31.205 40.734
C 29.168 30.753 41.055
C 29.035 29.592 41.926
C 27.62  29.358 42.168
C 26.99  30.415 41.392
C 30.156 28.881 42.577
H 29.731 27.935 43.035
H 31.026 28.703 41.959
H 30.435 29.497 43.424
C 26.53  28.497 42.719
O 26.521 27.436 43.279
C 25.216 29.153 42.252
H 24.808 29.361 43.243
C 24.527 28.138 41.411
O 24.961 27.505 40.457
O 23.169 28.121 41.754
C 22.45  27.134 40.904
H 22.638 27.331 39.92 
H 22.784 26.085 41.156
H 21.365 27.285 41.154
C 18.772 33.089 41.799
H 18.874 33.804 42.67 
H 17.867 32.489 41.844
C 18.947 33.871 40.493
H 18.694 33.342 39.57 
C 19.431 35.105 40.38 
C 20.187 35.916 41.461
H 19.612 36.789 41.804
H 20.401 35.343 42.328
H 21.183 36.262 41.096
C 19.543 35.732 38.981
H 19.184 34.928 38.334
H 20.6   35.906 38.794
C 18.829 37.081 38.722
H 19.346 37.627 37.948
H 18.992 37.654 39.668
C 17.278 37.048 38.385
H 16.783 37.506 39.25 
H 16.867 36.078 38.261
C 16.676 37.839 37.11 
H 17.002 38.915 37.063
C 15.157 37.929 37.325
H 14.916 38.474 38.279
H 14.93  38.613 36.566
H 14.622 37.04  37.148
C 17.128 37.196 35.728
H 18.166 37.226 35.665
H 16.862 37.952 34.88 
C 16.693 35.771 35.449
H 15.947 35.811 34.668
H 16.003 35.421 36.251
C 17.74  34.715 35.219
H 17.449 33.956 35.977
H 18.651 35.163 35.651
C 17.796 34.171 33.749
H 16.839 33.973 33.312
C 18.616 32.853 33.656
H 18.413 32.547 32.696
H 19.707 33.057 33.627
H 18.389 32.108 34.398
C 18.279 35.173 32.739
H 19.334 35.214 32.899
H 17.88  36.126 32.961
C 17.894 34.913 31.234
H 17.42  35.755 30.729
H 17.121 34.114 31.339
C 19.07  34.383 30.473
H 19.878 34.069 31.107
H 19.498 35.192 29.855
C 18.846 33.288 29.41 
H 18.658 32.24  29.835
C 20.198 32.986 28.628
H 20.198 32.031 28.034
H 20.3   33.968 28.068
H 21.066 33.057 29.307
C 17.66  33.567 28.496
H 17.904 34.251 27.723
H 17.394 32.613 28.005
H 16.749 33.965 28.992
