137

Mg 28.007 29.517 32.09 
C 26.628 26.562 31.009
C 30.046 29.464 29.329
H 30.659 29.403 28.399
C 29.626 32.212 33.34 
H 30.053 33.132 33.753
C 25.979 29.37  34.936
H 25.303 29.266 35.801
N 28.165 28.296 30.341
C 27.469 27.096 30.112
C 27.792 26.495 28.735
H 28.036 25.448 28.831
C 29.015 27.371 28.32 
H 28.951 27.833 27.34 
C 29.1   28.528 29.334
C 30.34  26.525 28.398
H 30.342 26.132 29.463
H 30.282 25.664 27.768
H 31.227 27.16  28.278
C 26.541 26.653 27.765
H 26.411 27.714 27.61 
H 25.601 26.282 28.241
C 26.709 26.061 26.349
H 26.136 26.679 25.651
H 27.763 26.119 26.109
C 26.423 24.598 26.136
O 27.197 23.785 25.738
O 25.167 24.287 26.572
N 29.584 30.653 31.477
C 30.336 30.439 30.323
C 31.385 31.472 30.235
C 31.176 32.297 31.32 
C 30.102 31.715 32.135
C 32.383 31.447 29.102
H 32.625 30.472 28.733
H 31.941 32.17  28.368
H 33.311 31.892 29.456
C 31.921 33.512 31.666
H 31.818 33.88  32.691
C 32.746 34.228 30.847
H 32.868 33.892 29.772
H 33.293 35.164 31.198
N 27.853 30.594 33.891
C 28.629 31.708 34.152
C 28.102 32.365 35.346
C 27.047 31.522 35.79 
C 26.889 30.46  34.819
C 28.667 33.611 35.97 
H 29.575 33.926 35.565
H 27.947 34.466 35.853
H 28.899 33.318 36.978
C 26.083 31.705 37.012
H 25.957 30.784 37.534
H 26.575 32.332 37.778
C 24.825 32.28  36.607
H 24.922 33.32  36.396
H 24.44  31.774 35.659
H 24.047 32.115 37.409
N 26.652 28.164 32.939
C 25.922 28.219 34.13 
C 25.264 26.902 34.269
C 25.466 26.326 33.021
C 26.347 27.07  32.259
C 24.365 26.484 35.36 
H 23.317 26.786 35.275
H 24.413 25.38  35.456
H 24.845 26.945 36.225
C 25.16  25.176 32.306
O 24.397 24.258 32.624
C 25.841 25.217 30.937
H 25.122 25.305 30.119
C 26.692 23.988 30.645
O 27.885 23.963 30.986
O 25.96  22.899 30.19 
C 26.861 21.772 29.877
H 27.364 21.884 28.934
H 27.466 21.453 30.754
H 26.193 20.903 29.666
C 24.714 22.862 26.391
H 25.425 22.168 26.834
H 24.647 22.749 25.358
C 23.288 22.624 26.974
H 22.676 23.467 26.652
C 22.812 21.744 27.776
C 23.545 20.724 28.533
H 22.963 19.866 28.601
H 24.51  20.5   28.071
H 23.731 21.079 29.545
C 21.368 21.883 28.228
H 20.97  22.8   27.773
H 21.226 21.969 29.265
C 20.364 20.78  27.657
H 20.049 20.154 28.496
H 20.95  20.13  27.045
C 19.216 21.3   26.779
H 19.513 21.138 25.726
H 19.186 22.34  26.922
C 17.843 20.587 26.992
H 18.159 19.595 27.029
C 17.007 20.572 25.735
H 16.487 21.521 25.633
H 17.693 20.49  24.942
H 16.218 19.727 25.691
C 17.026 21.031 28.304
H 17.676 20.636 29.103
H 16.241 20.314 28.507
C 16.745 22.528 28.484
H 15.668 22.609 28.729
H 16.827 23.056 27.53 
C 17.607 23.218 29.621
H 18.169 24.028 29.101
H 18.339 22.502 29.983
C 16.767 23.805 30.829
H 16.053 24.469 30.417
C 17.614 24.676 31.778
H 18.313 24.11  32.405
H 18.062 25.403 31.078
H 16.899 25.167 32.398
C 16.178 22.6   31.592
H 16.983 22.079 32.154
H 15.71  21.917 30.932
C 14.979 22.978 32.452
H 14.016 22.533 32.072
H 14.708 23.978 32.366
C 15.177 22.602 33.951
H 16.079 22.953 34.452
H 14.977 21.558 33.981
C 14.151 23.192 34.95 
H 14.209 24.293 34.9  
C 14.445 22.833 36.417
H 13.675 23.385 37.008
H 14.276 21.748 36.657
H 15.453 23.217 36.719
C 12.698 22.722 34.626
H 12.677 21.662 34.545
H 12.01  23.031 35.397
H 12.399 23.172 33.647
