137

Mg 21.108 26.164 33.282
C 23.066 24.246 35.33 
C 18.983 26.891 35.904
H 18.464 27.216 36.807
C 19.346 28.134 31.235
H 18.783 28.734 30.504
C 23.289 25.369 30.638
H 24.071 25.137 29.966
N 21.092 25.739 35.316
C 21.932 24.862 35.995
C 21.546 24.763 37.466
H 21.248 23.715 37.607
C 20.367 25.739 37.615
H 20.53  26.673 38.158
C 20.092 26.078 36.187
C 19.091 25.191 38.466
H 18.913 24.231 38.253
H 19.424 25.285 39.492
H 18.139 25.682 38.24 
C 22.724 24.975 38.45 
H 23.258 25.769 38.052
H 23.27  24.069 38.357
C 22.447 25.211 39.94 
H 21.377 25.044 40.104
H 23.005 24.428 40.462
C 22.794 26.543 40.582
O 23.847 26.892 41.014
O 21.714 27.449 40.559
N 19.462 27.422 33.545
C 18.697 27.506 34.645
C 17.671 28.528 34.408
C 17.823 28.912 33.087
C 18.933 28.136 32.54 
C 16.553 28.804 35.413
H 15.564 28.559 34.998
H 16.691 28.135 36.326
H 16.508 29.838 35.767
C 16.93  29.81  32.285
H 16.989 29.654 31.253
C 16.03  30.694 32.634
H 15.839 30.872 33.682
H 15.54  31.213 31.873
N 21.209 26.565 31.251
C 20.324 27.365 30.643
C 20.607 27.347 29.182
C 21.718 26.51  28.999
C 22.103 26.056 30.325
C 19.831 28.035 28.089
H 19.097 27.349 27.898
H 19.364 29.011 28.366
H 20.474 28.126 27.247
C 22.439 26.146 27.727
H 22.401 25.023 27.683
H 21.968 26.495 26.849
C 23.946 26.589 27.655
H 24.191 27.524 28.099
H 24.635 25.851 28.087
H 24.27  26.628 26.609
N 22.857 25.155 33.029
C 23.643 24.906 31.93 
C 24.791 24.039 32.243
C 24.559 23.747 33.528
C 23.382 24.447 33.963
C 25.912 23.478 31.334
H 25.566 22.943 30.489
H 26.522 24.356 31.075
H 26.596 22.8   31.838
C 24.95  22.87  34.656
O 25.732 21.959 34.663
C 24.011 23.208 35.89 
H 24.479 23.417 36.836
C 23.27  21.937 36.095
O 22.806 21.267 35.158
O 23.073 21.726 37.416
C 22.641 20.362 37.748
H 22.679 20.221 38.826
H 21.559 20.37  37.534
H 23.132 19.598 37.129
C 21.795 28.817 41.037
H 22.522 29.269 40.382
H 22.048 28.809 42.081
C 20.368 29.404 40.922
H 19.794 29.409 41.894
C 19.709 29.912 39.866
C 20.411 29.763 38.52 
H 21.062 28.89  38.444
H 19.677 29.552 37.745
H 20.965 30.622 38.064
C 18.259 30.308 39.942
H 17.798 30.286 40.93 
H 17.737 29.518 39.374
C 18.076 31.726 39.435
H 19.087 32.179 39.22 
H 17.756 32.384 40.259
C 17.212 31.942 38.154
H 17.314 31.001 37.548
H 17.66  32.765 37.581
C 15.712 32.406 38.352
H 15.816 33.338 38.817
C 15.008 31.432 39.425
H 13.951 31.684 39.492
H 15.193 30.491 38.962
H 15.334 31.389 40.439
C 14.914 32.593 37.067
H 13.868 32.869 37.273
H 14.867 31.57  36.534
C 15.577 33.458 35.999
H 16.081 32.694 35.396
H 16.287 34.023 36.602
C 14.577 34.423 35.247
H 14.042 34.97  36.083
H 13.785 33.721 34.916
C 15.204 35.242 34.054
H 15.905 34.441 33.615
C 16.216 36.257 34.636
H 16.56  36.903 33.777
H 15.732 36.869 35.412
H 17.068 35.77  35.127
C 14.21  35.643 32.932
H 14.86  36.014 32.204
H 13.441 36.244 33.342
C 13.28  34.531 32.406
H 12.301 34.642 32.81 
H 13.735 33.513 32.543
C 13.006 34.659 30.917
H 13.226 35.704 30.632
H 11.904 34.568 30.737
C 13.769 33.844 29.883
H 13.615 32.764 29.889
C 15.243 34.177 30.054
H 15.891 33.66  29.389
H 15.363 35.224 29.853
H 15.471 33.999 31.112
C 13.379 34.314 28.438
H 14.008 33.738 27.795
H 12.343 34.108 28.313
H 13.597 35.363 28.298
