137

Mg 21.998 19.204 28.448
C 22.957 16.824 26.235
C 24.59  21.204 27.349
H 25.443 21.805 26.989
C 21.123 21.506 30.759
H 20.815 22.279 31.39 
C 19.629 16.984 29.718
H 18.799 16.382 30.052
N 23.56  18.993 26.951
C 23.687 18.004 26.079
C 24.901 18.149 25.122
H 25.599 17.301 25.247
C 25.557 19.439 25.715
H 25.698 20.174 24.873
C 24.504 19.902 26.771
C 26.899 19.155 26.487
H 27.61  18.693 25.807
H 27.438 20.044 26.782
H 26.688 18.566 27.306
C 24.537 18.1   23.62 
H 23.669 18.791 23.612
H 24.235 17.085 23.342
C 25.673 18.623 22.708
H 26.603 18.886 23.154
H 25.931 17.835 22.033
C 25.409 19.804 21.795
O 25.543 19.861 20.559
O 25.151 20.83  22.625
N 22.723 21.08  28.949
C 23.785 21.762 28.34 
C 23.845 23.101 28.896
C 22.91  23.201 29.924
C 22.221 21.821 29.936
C 24.936 24.164 28.604
H 24.452 25.151 28.754
H 25.835 24.074 29.317
H 25.259 24.096 27.55 
C 22.546 24.203 30.925
H 21.691 24.087 31.634
C 23.241 25.332 31.186
H 24.145 25.615 30.58 
H 22.941 26.064 31.885
N 20.701 19.212 30.055
C 20.38  20.333 30.801
C 19.312 20.074 31.713
C 18.997 18.714 31.543
C 19.812 18.229 30.351
C 18.777 21.153 32.637
H 18.895 22.141 32.16 
H 17.741 20.913 32.786
H 19.366 21.161 33.556
C 18.006 17.992 32.448
H 18.304 16.891 32.696
H 17.81  18.642 33.303
C 16.635 17.942 31.722
H 16.688 17.258 30.863
H 15.947 17.657 32.53 
H 16.238 18.961 31.413
N 21.498 17.344 28.21 
C 20.443 16.614 28.741
C 20.366 15.31  28.042
C 21.339 15.274 27.153
C 21.969 16.592 27.22 
C 19.544 14.098 28.456
H 18.548 14.069 28.001
H 19.949 13.181 28.086
H 19.453 13.97  29.542
C 22.05  14.579 26.092
O 21.894 13.387 25.758
C 23.074 15.494 25.442
H 22.82  15.559 24.383
C 24.402 14.826 25.48 
O 24.984 14.493 26.505
O 24.961 14.711 24.2  
C 26.263 14.128 24.052
H 26.907 14.207 24.943
H 26.095 13.082 23.809
H 26.807 14.455 23.153
C 25.089 22.167 21.953
H 24.347 22.198 21.175
H 26.034 22.486 21.453
C 24.783 23.089 23.155
H 25.568 23.276 23.877
C 23.572 23.672 23.441
C 22.284 23.477 22.595
H 22.188 24.208 21.797
H 22.138 22.488 22.116
H 21.46  23.596 23.307
C 23.396 24.346 24.729
H 24.36  24.226 25.356
H 22.67  23.723 25.263
C 22.974 25.844 24.649
H 21.895 25.924 24.262
H 23.53  26.464 23.998
C 23.129 26.503 26.081
H 23.424 25.688 26.75 
H 22.188 26.921 26.398
C 24.161 27.636 26.28 
H 24.08  28.246 25.319
C 25.704 27.116 26.308
H 25.953 26.54  27.206
H 25.735 26.508 25.468
H 26.43  27.988 26.258
C 23.849 28.472 27.533
H 24.773 28.953 27.787
H 23.698 27.818 28.44 
C 22.63  29.47  27.474
H 22.258 29.518 26.446
H 23.049 30.485 27.78 
C 21.564 29.162 28.546
H 21.914 29.294 29.6  
H 21.307 28.096 28.381
C 20.223 29.964 28.335
H 19.772 29.892 27.371
C 20.4   31.523 28.694
H 21.004 32.1   27.987
H 19.415 32.031 28.613
H 20.721 31.572 29.706
C 19.18  29.366 29.276
H 19.484 29.433 30.331
H 19.092 28.262 29.124
C 17.778 29.863 29.112
H 17.384 30.011 28.119
H 17.742 30.782 29.694
C 16.761 29.091 29.956
H 17.28  28.849 30.935
H 16.608 28.128 29.432
C 15.326 29.767 30.179
H 15.408 30.563 30.944
C 14.252 28.813 30.715
H 13.338 29.317 30.885
H 14.064 28.102 29.861
H 14.681 28.34  31.62 
C 14.835 30.396 28.891
H 14.774 29.591 28.106
H 13.876 30.861 29.077
H 15.464 31.236 28.525
