137

Mg 26.879 32.065 40.08 
C 25.441 28.873 40.706
C 23.705 33.238 39.749
H 22.717 33.757 39.625
C 28.197 35.081 39.989
H 28.599 36.062 40.05 
C 29.992 30.641 40.545
H 30.971 30.259 40.523
N 24.85  31.178 40.273
C 24.507 29.853 40.458
C 22.951 29.726 40.35 
H 22.717 29.003 39.636
C 22.466 31.09  39.905
H 21.754 31.509 40.572
C 23.732 31.901 40.011
C 21.833 31.069 38.504
H 21.488 32.096 38.299
H 22.463 30.752 37.683
H 20.931 30.468 38.643
C 22.279 29.253 41.727
H 22.408 30.031 42.482
H 22.801 28.466 42.234
C 20.813 28.889 41.657
H 20.5   28.923 40.597
H 20.578 27.953 42.072
C 19.897 29.759 42.433
O 19.301 29.407 43.439
O 19.747 30.924 41.762
N 26.065 33.852 39.775
C 24.792 34.155 39.713
C 24.641 35.607 39.552
C 25.943 36.171 39.568
C 26.812 35.026 39.747
C 23.396 36.393 39.496
H 23.203 36.794 40.492
H 23.537 37.209 38.78 
H 22.537 35.764 39.132
C 26.383 37.595 39.56 
H 27.459 37.751 39.414
C 25.601 38.675 39.894
H 24.513 38.528 40.199
H 26.061 39.672 40.007
N 28.813 32.739 40.398
C 29.173 34.076 40.302
C 30.571 34.255 40.571
C 31.074 32.953 40.62 
C 29.944 32.036 40.5  
C 31.329 35.534 40.698
H 31.307 35.849 41.686
H 32.376 35.548 40.326
H 30.881 36.351 40.163
C 32.583 32.49  40.774
H 32.867 31.974 39.817
H 33.299 33.338 40.756
C 32.845 31.654 42.002
H 33.911 31.319 41.902
H 32.745 32.381 42.852
H 32.188 30.772 42.188
N 27.612 30.193 40.672
C 28.921 29.696 40.679
C 28.962 28.242 40.777
C 27.584 27.931 40.83 
C 26.853 29.112 40.715
C 30.141 27.377 40.845
H 30.991 27.932 41.135
H 29.991 26.772 41.715
H 30.449 26.892 39.937
C 26.666 26.823 40.906
O 26.938 25.628 40.963
C 25.204 27.428 41.034
H 24.722 27.289 42.023
C 24.329 26.638 39.997
O 24.255 26.741 38.76 
O 23.622 25.757 40.718
C 22.851 24.736 40.042
H 22.511 24.043 40.822
H 21.954 25.191 39.571
H 23.547 24.222 39.32 
C 18.765 31.831 42.257
H 18.899 32.022 43.354
H 17.732 31.375 42.092
C 18.853 32.977 41.324
H 18.409 32.863 40.292
C 19.402 34.224 41.561
C 20.105 34.69  42.796
H 20.119 33.917 43.578
H 21.096 34.79  42.442
H 19.838 35.736 43.082
C 19.337 35.261 40.397
H 19.565 34.66  39.501
H 20.147 35.99  40.567
C 18.029 36.089 40.392
H 18.165 37.166 40.546
H 17.343 35.714 41.122
C 17.302 35.787 39.069
H 16.317 35.352 39.489
H 17.703 34.984 38.501
C 16.933 37.053 38.229
H 16.489 37.815 38.86 
C 15.844 36.94  37.109
H 15.584 37.862 36.632
H 16.131 36.173 36.353
H 14.912 36.771 37.637
C 18.288 37.586 37.579
H 19.038 37.784 38.342
H 18.1   38.599 37.296
C 18.944 36.848 36.39 
H 18.379 35.993 36.163
H 19.965 36.582 36.634
C 19.15  37.756 35.091
H 20.097 38.38  35.159
H 18.414 38.516 34.925
C 19.386 36.923 33.762
H 20.046 36.13  34.092
C 19.998 37.826 32.65 
H 19.311 38.654 32.385
H 21.005 38.257 32.946
H 20.156 37.218 31.691
C 18.04  36.287 33.296
H 17.406 37.111 32.953
H 17.529 35.793 34.164
C 18.275 35.337 32.111
H 19.353 35.053 32.085
H 18.002 35.953 31.174
C 17.36  34.072 32.266
H 16.518 34.35  32.905
H 17.946 33.25  32.656
C 16.652 33.641 30.948
H 16.1   34.554 30.622
C 15.678 32.423 31.266
H 15.191 32.107 30.28 
H 16.143 31.576 31.603
H 14.875 32.768 31.95 
C 17.667 33.316 29.788
H 17.172 33.033 28.88 
H 18.325 34.2   29.63 
H 18.285 32.413 29.899
