137

Mg 22.52  20.075 28.492
C 22.406 18.053 25.573
C 25.51  21.369 27.355
H 26.438 21.817 27.028
C 22.788 21.833 31.369
H 22.798 22.457 32.215
C 19.622 18.634 29.485
H 18.66  18.338 29.778
N 23.786 19.774 26.671
C 23.508 18.941 25.574
C 24.503 19.318 24.451
H 24.936 18.358 24.143
C 25.536 20.318 25.064
H 25.644 21.253 24.56 
C 24.895 20.576 26.421
C 26.942 19.665 25.35 
H 26.797 18.911 26.05 
H 27.388 19.159 24.442
H 27.754 20.21  25.751
C 23.928 19.859 23.209
H 23.344 20.754 23.523
H 23.309 19.122 22.723
C 24.928 20.08  22.007
H 25.891 19.878 22.425
H 24.693 19.348 21.257
C 25.14  21.442 21.372
O 26.061 21.737 20.625
O 24.315 22.357 21.914
N 23.966 21.244 29.349
C 25.131 21.691 28.714
C 25.857 22.576 29.626
C 25.058 22.782 30.691
C 23.851 21.93  30.524
C 27.054 23.494 29.186
H 27.737 23.483 30.001
H 27.553 23.367 28.231
H 26.599 24.432 29.193
C 25.188 23.699 31.868
H 24.301 24.145 32.398
C 26.328 23.904 32.534
H 27.328 23.475 32.26 
H 26.363 24.584 33.402
N 21.453 20.086 30.221
C 21.662 20.965 31.236
C 20.51  20.799 32.201
C 19.634 19.903 31.581
C 20.252 19.476 30.415
C 20.49  21.526 33.534
H 19.6   21.514 34.156
H 21.198 20.915 34.172
H 20.823 22.564 33.386
C 18.305 19.481 32.262
H 18.35  18.372 32.467
H 18.239 20.079 33.192
C 16.962 19.875 31.533
H 16.813 19.564 30.501
H 16.185 19.304 32.07 
H 16.867 20.904 31.72 
N 21.292 18.6   27.738
C 20.126 18.051 28.322
C 19.554 17.062 27.426
C 20.387 17.089 26.291
C 21.447 17.992 26.557
C 18.226 16.391 27.662
H 18.21  15.588 28.392
H 17.457 17.12  28.02 
H 18.007 16.013 26.669
C 20.557 16.562 24.951
O 19.881 15.759 24.31 
C 21.973 17.035 24.482
H 21.786 17.613 23.638
C 23.004 15.982 24.203
O 23.694 15.396 25.017
O 23.076 15.819 22.845
C 24.19  14.905 22.471
H 24.001 13.856 22.857
H 24.399 14.935 21.433
H 25.087 15.213 23.043
C 24.606 23.739 21.651
H 24.622 23.867 20.547
H 25.598 23.91  22.086
C 23.422 24.511 22.268
H 23.347 24.485 23.36 
C 22.525 25.273 21.706
C 22.294 25.519 20.204
H 22.299 26.605 20.161
H 23.082 25.136 19.613
H 21.345 25.115 19.816
C 21.584 26.024 22.64 
H 21.528 25.5   23.597
H 20.649 25.913 22.185
C 21.73  27.488 22.819
H 20.743 27.84  22.959
H 22.035 27.939 21.892
C 22.543 28.056 23.959
H 22.763 27.199 24.612
H 21.917 28.695 24.55 
C 23.725 28.917 23.52 
H 23.293 29.582 22.747
C 24.816 28.14  22.848
H 25.087 27.169 23.28 
H 24.469 27.867 21.798
H 25.754 28.795 22.612
C 24.235 29.785 24.746
H 25.122 30.243 24.497
H 24.468 29.106 25.64 
C 23.301 30.916 25.173
H 22.311 30.926 24.766
H 23.851 31.848 24.845
C 23.132 30.972 26.785
H 23.834 31.772 27.157
H 23.477 30.047 27.244
C 21.763 31.277 27.321
H 21.112 30.517 26.935
C 21.322 32.704 26.929
H 21.127 32.699 25.855
H 20.411 32.921 27.465
H 22.068 33.524 27.131
C 21.782 31.022 28.936
H 22.641 31.466 29.409
H 21.954 29.966 29.11 
C 20.564 31.482 29.738
H 19.664 31.407 29.118
H 20.792 32.501 29.967
C 20.455 30.655 31.116
H 21.416 30.126 31.213
H 19.737 29.876 31.088
C 20.341 31.39  32.464
H 21.115 32.216 32.315
C 20.833 30.486 33.618
H 20.6   31.038 34.576
H 20.235 29.539 33.635
H 21.867 30.386 33.414
C 19.043 32.128 32.715
H 18.238 31.544 33.17 
H 19.185 32.95  33.395
H 18.703 32.417 31.729
