137

Mg 20.448 19.099 22.868
C 22.094 21.793 21.376
C 20.288 20.977 25.761
H 20.343 21.554 26.651
C 18.458 16.691 24.289
H 17.7   16.04  24.713
C 20.695 17.301 19.967
H 20.962 16.749 19.123
N 20.846 21.211 23.441
C 21.652 22.063 22.663
C 21.937 23.387 23.408
H 22.981 23.508 23.206
C 21.562 23.033 24.842
H 20.804 23.714 25.272
C 20.856 21.668 24.714
C 22.672 22.931 25.895
H 23.105 23.917 26.087
H 22.357 22.561 26.848
H 23.495 22.276 25.573
C 21.08  24.543 22.798
H 20.033 24.248 22.859
H 21.401 24.532 21.721
C 21.255 25.969 23.403
H 20.3   26.401 23.59 
H 21.827 25.928 24.277
C 21.806 27.117 22.54 
O 22.582 26.998 21.623
O 21.194 28.32  22.836
N 19.476 18.913 24.772
C 19.668 19.75  25.819
C 18.979 19.201 26.973
C 18.383 18.003 26.554
C 18.814 17.8   25.128
C 18.88  19.817 28.359
H 19.436 20.717 28.402
H 17.857 19.942 28.706
H 19.462 19.232 29.074
C 17.617 16.983 27.367
H 16.9   16.55  26.739
C 17.795 16.656 28.636
H 18.423 17.226 29.258
H 17.359 15.732 29.071
N 19.683 17.336 22.225
C 18.922 16.438 22.997
C 18.673 15.211 22.242
C 19.178 15.468 20.921
C 19.881 16.74  20.974
C 17.983 13.986 22.805
H 18.174 13.168 22.151
H 18.474 13.784 23.78 
H 16.909 14.189 22.811
C 19.133 14.58  19.767
H 19.884 14.799 19.071
H 19.108 13.525 20.031
C 17.724 14.494 18.983
H 17.8   14.031 17.972
H 16.826 14.086 19.465
H 17.502 15.501 18.772
N 21.274 19.367 21.164
C 21.348 18.566 20.034
C 22.102 19.22  18.949
C 22.434 20.427 19.474
C 21.886 20.534 20.831
C 22.376 18.711 17.573
H 23.183 17.991 17.631
H 21.501 18.302 17.022
H 22.809 19.433 16.939
C 23.087 21.697 19.118
O 23.548 22.075 18.069
C 22.893 22.572 20.346
H 22.508 23.556 20.138
C 24.345 22.721 20.772
O 25.223 21.882 20.923
O 24.593 24.072 21.104
C 25.974 24.465 21.44 
H 26.154 24.218 22.521
H 26.844 24.082 20.793
H 26.001 25.557 21.466
C 21.533 29.491 22.024
H 21.42  29.383 20.965
H 22.609 29.676 22.243
C 20.633 30.67  22.318
H 19.563 30.554 22.077
C 21.024 31.855 22.774
C 22.46  32.075 23.13 
H 22.712 33.155 23.371
H 22.683 31.62  24.028
H 23.11  31.783 22.33 
C 20.101 33.043 22.644
H 20.099 33.458 23.619
H 19.057 32.737 22.518
C 20.584 34.161 21.732
H 21.097 33.772 20.812
H 21.333 34.768 22.315
C 19.496 35.036 21.131
H 18.632 34.742 21.692
H 19.31  34.784 20.089
C 19.712 36.563 21.236
H 20.73  36.787 20.976
C 19.436 37.025 22.675
H 18.388 36.853 23.023
H 20.073 36.488 23.359
H 19.735 38.091 22.71 
C 18.74  37.395 20.274
H 18.908 38.477 20.541
H 17.729 37.1   20.374
C 19.102 37.191 18.829
H 18.327 36.508 18.467
H 20.076 36.674 18.685
C 19.029 38.495 17.983
H 19.894 38.54  17.425
H 19.075 39.413 18.513
C 17.895 38.611 16.976
H 17.751 37.707 16.4  
C 18.2   39.753 16.016
H 17.582 39.834 15.095
H 18.409 40.601 16.641
H 19.146 39.37  15.653
C 16.529 38.889 17.736
H 16.559 39.785 18.437
H 16.439 38.045 18.435
C 15.236 38.783 16.905
H 14.593 38.053 17.425
H 15.398 38.386 15.871
C 14.512 40.225 16.781
H 14.283 40.343 15.705
H 15.277 41.021 17.077
C 13.327 40.309 17.771
H 12.524 39.629 17.636
C 12.592 41.726 17.624
H 12.025 41.708 16.669
H 11.851 41.812 18.403
H 13.285 42.594 17.575
C 13.76  40.191 19.241
H 13.966 39.145 19.606
H 14.665 40.762 19.422
H 12.966 40.603 19.885
