137

Mg 20.785 17.726 31.084
C 24.153 17.247 30.306
C 21.403 21.042 30.892
H 21.65  22.109 30.728
C 17.54  18.226 31.854
H 16.533 18.334 32.121
C 20.31  14.306 31.06 
H 20.185 13.148 31.091
N 22.576 18.967 30.59 
C 23.859 18.527 30.314
C 24.785 19.741 30.155
H 25.568 19.684 30.965
C 23.86  20.965 30.227
H 23.813 21.411 29.252
C 22.557 20.297 30.64 
C 24.226 22.049 31.224
H 25.289 22.308 30.945
H 23.64  22.965 31.158
H 24.243 21.679 32.201
C 25.487 19.728 28.76 
H 24.814 19.674 27.923
H 25.909 18.701 28.715
C 26.659 20.685 28.493
H 26.894 21.186 29.379
H 27.451 20.048 28.036
C 26.54  21.652 27.387
O 27.324 21.86  26.485
O 25.582 22.544 27.793
N 19.666 19.342 31.219
C 20.086 20.666 31.127
C 18.916 21.537 31.188
C 17.827 20.708 31.441
C 18.363 19.386 31.596
C 19.105 23.062 31.133
H 18.205 23.627 31.317
H 19.817 23.384 31.921
H 19.478 23.206 30.098
C 16.419 21.039 31.84 
H 15.731 20.284 32.291
C 15.829 22.184 31.488
H 16.25 22.96 30.84
H 14.734 22.301 31.692
N 19.164 16.488 31.347
C 17.877 16.884 31.651
C 17.013 15.703 31.817
C 17.772 14.622 31.487
C 19.164 15.116 31.25 
C 15.519 15.678 32.116
H 15.196 16.654 31.886
H 15.003 14.885 31.572
H 15.358 15.489 33.124
C 17.376 13.098 31.265
H 17.151 12.914 30.176
H 18.182 12.424 31.533
C 16.193 12.67  32.017
H 16.19  11.632 32.099
H 16.378 13.034 33.034
H 15.172 12.888 31.793
N 21.953 16.117 30.774
C 21.675 14.75  30.862
C 22.908 13.987 30.827
C 23.877 14.942 30.572
C 23.245 16.202 30.526
C 23.169 12.487 31.034
H 23.012 11.95  30.076
H 24.157 12.381 31.439
H 22.403 12.085 31.679
C 25.326 15.015 30.474
O 26.186 14.148 30.495
C 25.533 16.566 30.143
H 25.858 16.618 29.081
C 26.576 16.968 31.218
O 26.333 17.328 32.376
O 27.812 16.977 30.691
C 28.875 17.007 31.68 
H 28.979 15.985 32.132
H 29.779 17.281 31.145
H 28.653 17.789 32.424
C 25.403 23.603 26.76 
H 25.286 23.203 25.76 
H 26.334 24.314 26.75 
C 24.192 24.399 27.181
H 24.129 24.454 28.212
C 23.169 24.939 26.492
C 23.134 24.834 24.995
H 24.137 24.952 24.561
H 22.683 23.895 24.587
H 22.745 25.73  24.553
C 21.979 25.484 27.305
H 21.76  24.897 28.204
H 21.074 25.538 26.697
C 22.262 26.975 27.793
H 23.307 27.107 27.832
H 21.761 27.112 28.704
C 21.676 28.05  26.86 
H 21.296 27.597 25.923
H 22.481 28.658 26.57 
C 20.591 29.114 27.538
H 20.984 29.625 28.354
C 19.354 28.263 28.066
H 19.134 27.545 27.346
H 19.545 27.633 28.927
H 18.513 28.915 28.403
C 20.116 30.14  26.469
H 19.45  29.636 25.78 
H 20.982 30.358 25.867
C 19.578 31.484 26.929
H 20.257 32.262 26.61 
H 19.597 31.433 28.009
C 18.231 31.802 26.309
H 17.629 30.978 26.299
H 18.365 32.023 25.261
C 17.519 33.057 26.976
H 18.328 33.844 27.029
C 17.066 32.737 28.433
H 16.502 31.786 28.555
H 18.039 32.527 28.954
H 16.499 33.557 28.847
C 16.296 33.556 26.021
H 15.502 32.789 26.183
H 16.605 33.405 25.007
C 15.723 34.977 26.42 
H 16.487 35.637 26.915
H 14.857 34.742 27.097
C 15.158 35.674 25.127
H 14.055 35.654 25.147
H 15.598 35.177 24.247
C 15.52  37.169 24.964
H 15.435 37.586 25.977
C 14.626 37.929 23.944
H 15.093 38.833 23.652
H 14.435 37.423 23.03 
H 13.702 38.061 24.442
C 17.026 37.457 24.525
H 17.328 37.164 23.501
H 17.206 38.525 24.711
H 17.593 36.955 25.269
