137

Mg 25.434 32.914 36.399
C 23.636 32.727 39.32 
C 22.517 34.221 34.894
H 21.644 34.705 34.459
C 27.098 33.127 33.554
H 27.669 32.992 32.615
C 28.081 31.3   37.935
H 28.92  30.879 38.442
N 23.397 33.503 37.075
C 22.892 33.38  38.352
C 21.519 33.927 38.533
H 21.053 33.181 39.084
C 21.052 34.04  37.05 
H 20.604 35.045 36.974
C 22.396 33.882 36.295
C 20.014 32.896 36.624
H 20.483 31.939 36.318
H 19.34  32.67  37.463
H 19.413 33.358 35.904
C 21.404 35.226 39.37 
H 21.822 36.12  38.928
H 21.999 35.225 40.265
C 19.953 35.519 39.715
H 19.313 34.688 39.481
H 20.034 35.648 40.811
C 19.231 36.706 39.277
O 19.557 37.824 39.59 
O 18.039 36.331 38.79 
N 24.996 33.657 34.504
C 23.718 34.131 34.052
C 23.769 34.403 32.653
C 25.048 34.032 32.223
C 25.765 33.583 33.463
C 22.58  34.86  31.885
H 22.866 35.099 30.884
H 21.788 34.112 31.816
H 22.163 35.777 32.329
C 25.716 34.165 30.827
H 26.471 33.383 30.616
C 25.408 35.184 30.006
H 24.732 35.976 30.234
H 25.864 35.278 29.038
N 27.331 32.425 35.881
C 27.861 32.67  34.628
C 29.235 32.215 34.489
C 29.516 31.739 35.83 
C 28.316 31.858 36.64 
C 30.102 32.365 33.174
H 30.897 31.64  33.256
H 29.549 32.168 32.322
H 30.529 33.329 33.077
C 30.819 31.075 36.318
H 30.577 30.083 36.753
H 31.505 30.94  35.493
C 31.483 31.89  37.468
H 32.476 31.408 37.654
H 31.611 32.879 37.179
H 30.836 31.892 38.354
N 25.875 32.249 38.24 
C 26.954 31.612 38.761
C 26.795 31.394 40.181
C 25.53  31.804 40.432
C 24.945 32.262 39.202
C 27.852 30.871 41.174
H 28.277 30.031 40.631
H 28.509 31.767 41.357
H 27.315 30.569 42.066
C 24.553 31.884 41.456
O 24.56  31.66  42.664
C 23.282 32.529 40.763
H 23.075 33.521 41.197
C 22.151 31.572 41.095
O 22.087 30.463 40.635
O 21.144 32.148 41.867
C 20.256 31.122 42.412
H 19.608 31.661 43.069
H 19.642 30.664 41.571
H 20.833 30.381 42.968
C 17.165 37.394 38.25 
H 17.65  37.747 37.341
H 16.927 38.233 38.98 
C 15.826 36.825 37.809
H 14.938 37.346 38.243
C 15.673 35.708 37.046
C 16.755 34.819 36.638
H 17.687 35.413 36.528
H 16.859 34.049 37.384
H 16.509 34.366 35.661
C 14.291 35.264 36.551
H 13.424 35.943 36.893
H 14.072 34.3   37.012
C 14.199 34.983 35.03 
H 13.576 34.104 34.892
H 15.093 34.924 34.491
C 13.293 36.073 34.36 
H 13.605 37.083 34.733
H 12.204 35.927 34.589
C 13.485 36.113 32.775
H 14.532 36.239 32.624
C 12.78  37.338 32.173
H 13.219 38.227 32.614
H 12.958 37.395 31.098
H 11.729 37.235 32.169
C 13.019 34.838 31.949
H 13.485 33.969 32.487
H 13.452 34.869 30.982
C 11.531 34.644 31.814
H 11.236 35.173 30.901
H 11.08  35.145 32.634
C 11.101 33.163 31.887
H 10.801 33.055 33.022
H 11.876 32.474 31.715
C  9.963 32.754 30.9  
H  9.334 33.608 30.621
C  9.036 31.641 31.523
H  8.008 31.539 31.058
H  9.647 30.725 31.575
H  8.728 31.914 32.557
C 10.37  32.202 29.479
H 10.646 31.185 29.552
H 11.307 32.746 29.224
C  9.394 32.314 28.29 
H  9.11  33.34  28.239
H  8.474 31.739 28.439
C 10.043 31.899 27.041
H  9.543 30.99  26.745
H 11.101 31.588 27.213
C  9.992 32.779 25.819
H  8.939 33.009 25.59 
C 10.537 32.018 24.521
H 10.43  32.758 23.677
H 11.575 31.769 24.561
H  9.884 31.149 24.281
C 10.841 34.1   25.983
H 11.18  34.61  25.066
H 10.224 34.819 26.613
H 11.694 33.675 26.555
