137

Mg 23.312 27.56  38.905
C 20.462 25.543 38.849
C 24.193 25.856 35.915
H 24.591 25.259 35.071
C 25.803 29.723 38.538
H 26.657 30.352 38.306
C 22.116 29.152 41.707
H 21.668 29.618 42.592
N 22.409 25.959 37.553
C 21.227 25.354 37.733
C 21.014 24.164 36.771
H 20.858 23.266 37.321
C 22.348 24.128 35.99 
H 22.035 24.158 34.973
C 23.016 25.432 36.453
C 23.288 22.868 36.26 
H 23.461 22.846 37.309
H 22.737 21.999 36.201
H 24.182 23.008 35.679
C 19.759 24.219 35.82 
H 19.905 25.154 35.28 
H 18.827 24.223 36.424
C 19.532 23.118 34.671
H 20.372 22.428 34.607
H 18.666 22.526 34.917
C 19.343 23.644 33.252
O 19.6   24.737 32.886
O 19.029 22.598 32.476
N 24.739 27.661 37.595
C 25.027 26.878 36.472
C 26.224 27.374 35.895
C 26.684 28.529 36.623
C 25.652 28.685 37.606
C 26.974 26.763 34.765
H 26.981 25.697 34.938
H 26.541 26.894 33.793
H 28.019 27.062 34.752
C 27.922 29.264 36.433
H 28.658 29.341 37.212
C 28.144 29.893 35.256
H 27.447 29.841 34.477
H 29.097 30.416 35.096
N 23.928 29.232 39.943
C 24.973 30.017 39.571
C 24.987 31.188 40.466
C 23.899 30.952 41.313
C 23.25  29.738 41.032
C 25.946 32.349 40.321
H 26.213 32.573 39.301
H 25.572 33.35  40.671
H 26.852 32.13  40.886
C 23.532 31.814 42.524
H 23.423 31.233 43.41 
H 24.282 32.54  42.685
C 22.228 32.598 42.296
H 21.888 33.055 43.241
H 22.427 33.407 41.647
H 21.459 31.921 41.87 
N 21.773 27.317 40.129
C 21.39  27.984 41.284
C 20.197 27.381 41.889
C 19.841 26.45  40.925
C 20.761 26.455 39.887
C 19.437 27.644 43.064
H 19.559 28.65  43.324
H 18.411 27.432 43.028
H 19.872 26.944 43.791
C 18.75  25.603 40.559
O 17.715 25.418 41.147
C 19.117 24.89  39.213
H 18.33  25.232 38.545
C 19.193 23.414 39.534
O 19.959 22.911 40.346
O 18.436 22.661 38.668
C 18.602 21.228 38.649
H 19.648 20.901 38.794
H 17.911 20.812 39.376
H 18.244 20.859 37.733
C 19.002 22.871 31.053
H 19.932 23.187 30.598
H 18.301 23.655 30.934
C 18.787 21.654 30.234
H 19.429 20.784 30.293
C 17.792 21.389 29.388
C 16.504 22.239 29.288
H 16.421 22.788 30.206
H 16.673 22.833 28.379
H 15.623 21.631 29.207
C 17.75  19.999 28.705
H 18.726 19.497 28.773
H 17.781 20.194 27.627
C 16.738 19.017 29.19 
H 16.173 19.347 30.007
H 17.256 18.136 29.425
C 15.828 18.563 28.02 
H 15.411 19.51  27.581
H 15.053 17.961 28.527
C 16.399 17.652 26.812
H 17.127 18.223 26.239
C 15.173 17.356 25.857
H 14.434 16.828 26.435
H 14.768 18.262 25.449
H 15.485 16.839 25.007
C 17.182 16.383 27.242
H 17.932 16.669 27.936
H 17.846 16.127 26.478
C 16.358 15.236 27.91 
H 15.358 15.728 28.128
H 16.725 14.908 28.864
C 15.986 13.991 27.07 
H 16.403 13.082 27.449
H 16.484 14.161 26.106
C 14.481 13.843 26.743
H 14.263 14.787 26.221
C 13.62  13.417 27.969
H 13.941 12.461 28.364
H 13.77  14.11  28.787
H 12.563 13.412 27.736
C 14.306 12.629 25.778
H 13.239 12.247 25.766
H 14.826 11.77  26.141
C 14.852 12.687 24.387
H 15.913 12.296 24.403
H 14.88  13.73  24.056
C 13.808 12.055 23.326
H 13.004 12.771 23.24 
H 13.513 11.061 23.713
C 14.378 11.971 21.909
H 14.91  12.935 21.738
C 13.38  11.893 20.764
H 12.845 10.897 20.863
H 12.766 12.768 20.916
H 13.942 11.97  19.786
C 15.423 10.809 21.89 
H 16.341 10.976 22.518
H 14.932  9.948 22.33 
H 15.793 10.552 20.884
