137

Mg 29.133 33.595 34.741
C 27.923 34.541 37.868
C 26.008 33.494 33.564
H 24.967 33.42  33.251
C 30.394 33.389 31.6  
H 30.866 33.173 30.712
C 32.356 33.953 36.036
H 33.305 33.886 36.418
N 27.186 33.934 35.6  
C 26.908 34.341 36.902
C 25.445 34.378 37.08 
H 25.266 33.684 37.949
C 24.854 33.82  35.819
H 24.073 34.427 35.379
C 26.066 33.771 34.935
C 24.19  32.379 36.007
H 24.117 31.805 35.131
H 24.8   31.885 36.715
H 23.15  32.48  36.466
C 24.948 35.807 37.394
H 24.935 36.346 36.481
H 25.745 36.332 37.918
C 23.582 36.005 38.143
H 23.166 35.05  38.409
H 23.816 36.453 39.066
C 22.604 36.785 37.39 
O 22.501 37.99  37.234
O 21.747 35.876 36.801
N 28.276 33.496 32.835
C 26.999 33.42  32.574
C 26.797 33.326 31.146
C 28.129 33.425 30.57 
C 28.998 33.518 31.694
C 25.431 33.379 30.4  
H 24.749 33.964 30.98 
H 25.499 33.824 29.403
H 24.91  32.394 30.291
C 28.651 33.33  29.176
H 29.7   33.537 29.028
C 27.926 32.754 28.213
H 26.909 32.337 28.38 
H 28.286 32.662 27.191
N 31.089 33.801 33.939
C 31.38  33.529 32.616
C 32.801 33.448 32.449
C 33.343 33.854 33.679
C 32.302 33.903 34.6  
C 33.467 33.1   31.178
H 34.51  33.508 31.086
H 33.618 31.97  31.132
H 32.973 33.493 30.295
C 34.786 33.949 34.039
H 34.997 33.277 34.907
H 35.328 33.624 33.162
C 35.225 35.315 34.422
H 36.317 35.228 34.639
H 35.032 36.094 33.635
H 34.749 35.801 35.257
N 30.007 34.085 36.52 
C 31.318 34.064 36.927
C 31.416 34.4   38.33 
C 30.113 34.708 38.742
C 29.263 34.38  37.635
C 32.637 34.625 39.116
H 33.332 35.142 38.477
H 32.406 35.157 40.003
H 33.038 33.687 39.46 
C 29.277 35.224 39.824
O 29.539 35.574 40.979
C 27.858 35.038 39.295
H 27.404 36.04  39.422
C 27.263 34.234 40.331
O 27.469 33.053 40.531
O 26.171 34.952 40.846
C 25.049 34.262 41.452
H 24.412 35.125 41.638
H 24.531 33.595 40.72 
H 25.256 33.746 42.38 
C 20.63  36.513 36.104
H 21.064 37.063 35.217
H 20.12  37.276 36.787
C 19.649 35.471 35.557
H 19.684 34.504 36.099
C 18.941 35.509 34.413
C 18.708 36.783 33.677
H 19.539 37.198 33.139
H 17.985 36.703 32.899
H 18.291 37.492 34.391
C 18.32  34.27  33.902
H 18.461 33.465 34.609
H 18.969 33.999 33.07 
C 16.89  34.171 33.371
H 16.646 35.139 32.879
H 16.145 34.042 34.188
C 16.822 32.998 32.324
H 17.698 32.389 32.352
H 16.749 33.394 31.287
C 15.548 32.102 32.48 
H 15.517 31.642 33.482
C 15.59 30.87 31.55
H 16.564 30.483 31.556
H 14.923 30.129 32.053
H 15.331 31.017 30.464
C 14.26  32.991 32.42 
H 14.187 33.775 33.153
H 13.481 32.325 32.676
C 13.948 33.753 31.101
H 14.765 33.566 30.415
H 13.937 34.845 31.216
C 12.72  33.315 30.37 
H 12.301 32.304 30.686
H 13.021 33.191 29.299
C 11.386 34.182 30.409
H 11.632 35.113 29.814
C 10.924 34.298 31.917
H 10.7   33.324 32.277
H 11.648 34.881 32.499
H 10.038 35.    32.003
C 10.433 33.441 29.441
H 10.361 32.482 29.877
H 10.954 33.283 28.482
C  9.046 34.056 29.142
H  9.032 34.25  28.014
H  9.003 35.086 29.533
C  7.73  33.187 29.528
H  8.028 32.227 29.923
H  7.2   33.011 28.636
C  6.772 33.935 30.526
H  7.309 34.343 31.4  
C  5.719 32.881 30.962
H  5.106 33.315 31.753
H  4.967 32.573 30.233
H  6.304 31.993 31.327
C  5.937 35.145 30.002
H  6.577 35.845 29.372
H  5.138 34.834 29.39 
H  5.492 35.711 30.855
