137

Mg 29.826 30.765 36.412
C 29.7   27.438 37.335
C 29.001 29.798 33.195
H 28.781 29.322 32.164
C 30.297 33.876 35.395
H 30.458 34.905 35.07 
C 30.839 31.533 39.582
H 31.136 31.841 40.59 
N 29.251 28.842 35.447
C 29.265 27.6   36.019
C 28.961 26.451 34.981
H 29.893 25.889 34.98 
C 28.897 27.23  33.631
H 27.969 27.148 33.016
C 29.063 28.681 34.122
C 30.18  26.974 32.831
H 31.116 27.167 33.454
H 30.261 25.944 32.502
H 30.168 27.693 31.999
C 27.678 25.552 35.25 
H 26.754 26.086 35.146
H 27.791 25.066 36.213
C 27.577 24.413 34.219
H 26.82  24.654 33.449
H 28.557 24.3   33.702
C 27.313 23.021 34.627
O 27.968 22.327 35.387
O 26.111 22.68  34.109
N 29.583 31.694 34.656
C 29.241 31.141 33.444
C 29.194 32.171 32.445
C 29.556 33.391 33.012
C 29.749 33.029 34.431
C 28.932 31.851 30.955
H 28.486 32.792 30.566
H 29.933 31.769 30.468
H 28.329 30.973 30.625
C 29.563 34.748 32.42 
H 29.266 35.634 33.058
C 29.923 34.912 31.139
H 30.245 34.073 30.556
H 29.999 35.907 30.669
N 30.377 32.401 37.371
C 30.501 33.64  36.758
C 31.032 34.62  37.689
C 31.092 33.954 38.888
C 30.765 32.546 38.609
C 31.209 35.984 37.297
H 31.276 36.576 38.213
H 32.03  36.2   36.669
H 30.412 36.479 36.735
C 31.51  34.464 40.204
H 32.218 33.745 40.658
H 32.164 35.309 40.134
C 30.329 34.527 41.193
H 30.717 34.869 42.186
H 29.511 35.074 40.891
H 29.992 33.512 41.383
N 30.102 29.77  38.135
C 30.563 30.154 39.395
C 30.635 29.049 40.34 
C 30.275 27.985 39.535
C 29.987 28.429 38.247
C 30.919 29.117 41.877
H 32.    29.15  42.004
H 30.427 30.05  42.204
H 30.382 28.269 42.361
C 30.194 26.541 39.553
O 30.372 25.763 40.487
C 29.716 26.111 38.146
H 28.7   25.836 38.28 
C 30.567 25.033 37.677
O 31.546 25.087 36.961
O 30.235 23.758 38.128
C 30.905 22.594 37.42 
H 30.959 22.781 36.337
H 31.899 22.506 37.803
H 30.428 21.586 37.553
C 25.527 21.453 34.594
H 25.551 21.334 35.689
H 26.155 20.614 34.252
C 24.132 21.429 33.986
H 24.133 21.588 32.907
C 23.002 20.961 34.585
C 22.848 20.582 36.047
H 23.743 20.653 36.661
H 22.118 21.194 36.609
H 22.468 19.574 36.058
C 21.734 21.064 33.747
H 21.994 21.497 32.751
H 21.187 21.812 34.36 
C 21.009 19.765 33.641
H 20.221 19.908 34.342
H 21.674 18.921 33.908
C 20.461 19.4   32.264
H 20.801 20.084 31.466
H 19.439 19.688 32.355
C 20.545 17.883 31.806
H 21.565 17.639 31.663
C 19.805 17.786 30.486
H 19.813 16.749 30.219
H 18.764 18.111 30.351
H 20.519 18.275 29.832
C 20.021 16.912 32.955
H 20.636 17.123 33.771
H 20.397 15.905 32.669
C 18.499 17.017 33.272
H 17.993 17.751 32.59 
H 18.401 17.281 34.301
C 17.744 15.692 33.076
H 17.253 15.463 34.005
H 18.389 14.869 32.705
C 16.554 15.762 32.016
H 16.853 16.387 31.16 
C 15.303 16.384 32.663
H 14.967 15.607 33.298
H 15.655 17.274 33.195
H 14.432 16.647 32.076
C 16.249 14.312 31.408
H 15.448 14.498 30.668
H 15.893 13.596 32.118
C 17.408 13.868 30.54 
H 18.227 14.579 30.52 
H 16.991 13.602 29.562
C 18.064 12.613 31.062
H 17.737 12.523 32.095
H 19.131 12.698 31.171
C 17.694 11.294 30.349
H 18.14  11.465 29.363
C 16.151 11.068 30.146
H 15.635 10.632 31.023
H 15.697 12.009 29.875
H 16.132 10.409 29.26 
C 18.276 10.016 31.037
H 19.387 10.043 30.851
H 18.028  9.937 32.128
H 17.933  9.08  30.595
