137

Mg 34.565 29.489 34.212
C 31.187 28.664 34.177
C 35.082 27.529 31.402
H 35.22  26.793 30.577
C 37.984 29.71  34.508
H 39.011 29.82  34.703
C 34.205 31.089 37.296
H 33.967 31.527 38.289
N 33.198 28.27  32.996
C 31.873 28.182 33.097
C 31.296 27.316 31.909
H 30.744 26.469 32.349
C 32.536 26.74  31.277
H 32.483 26.934 30.171
C 33.668 27.632 31.848
C 32.734 25.265 31.655
H 33.752 24.946 31.423
H 32.651 25.343 32.773
H 31.981 24.555 31.393
C 30.187 27.941 31.013
H 30.54  28.76  30.396
H 29.396 28.472 31.586
C 29.488 26.866 30.152
H 29.28  27.294 29.212
H 30.252 26.128 29.91 
C 28.19  26.175 30.51 
O 28.144 25.135 31.19 
O 27.117 26.829 29.938
N 36.3   28.81  33.034
C 36.301 28.042 31.925
C 37.584 27.899 31.394
C 38.449 28.595 32.257
C 37.605 29.175 33.305
C 37.907 27.126 30.168
H 37.055 27.013 29.532
H 38.774 27.61  29.622
H 38.358 26.136 30.469
C 39.856 28.889 32.214
H 40.185 29.448 31.348
C 40.8   28.548 33.137
H 40.482 28.044 34.093
H 41.88  28.768 33.03 
N 35.831 30.346 35.603
C 37.213 30.203 35.516
C 37.745 31.027 36.637
C 36.675 31.472 37.404
C 35.538 30.975 36.788
C 39.216 31.34  36.878
H 39.721 31.45  35.907
H 39.029 32.345 37.168
H 39.741 30.855 37.691
C 36.763 32.224 38.687
H 36.446 31.623 39.498
H 37.762 32.521 38.984
C 36.026 33.525 38.699
H 35.081 33.504 38.158
H 35.891 33.862 39.733
H 36.599 34.299 38.207
N 33.039 29.844 35.457
C 33.015 30.52  36.665
C 31.611 30.589 37.184
C 30.864 29.91  36.198
C 31.779 29.412 35.235
C 31.18  31.209 38.417
H 31.582 32.168 38.52 
H 30.122 31.267 38.347
H 31.522 30.772 39.385
C 29.499 29.502 35.826
O 28.42  29.714 36.351
C 29.713 28.717 34.465
H 29.092 29.181 33.7  
C 29.098 27.327 34.7  
O 29.553 26.569 35.525
O 28.031 27.026 33.917
C 27.434 25.656 34.137
H 27.038 25.397 35.097
H 26.561 25.605 33.441
H 28.138 24.863 33.897
C 25.883 26.112 30.219
H 25.844 26.027 31.289
H 25.858 25.152 29.769
C 24.783 26.979 29.783
H 25.061 28.024 29.943
C 23.533 26.668 29.173
C 22.968 25.32  28.888
H 22.545 25.264 27.9  
H 23.719 24.536 29.02 
H 22.047 25.111 29.498
C 22.587 27.864 28.925
H 23.062 28.718 29.34 
H 21.758 27.742 29.579
C 22.19  28.203 27.486
H 21.15  28.376 27.489
H 22.379 27.398 26.82 
C 22.841 29.455 26.891
H 23.389 29.25  25.967
H 23.653 29.859 27.486
C 21.867 30.687 26.678
H 21.307 30.973 27.546
C 20.952 30.147 25.534
H 20.658 30.902 24.89 
H 21.385 29.471 24.946
H 20.042 29.67  25.858
C 22.781 31.927 26.338
H 22.103 32.677 25.884
H 23.454 31.65  25.579
C 23.607 32.641 27.488
H 24.649 32.233 27.312
H 23.182 32.515 28.474
C 23.546 34.145 27.376
H 23.151 34.584 26.428
H 24.484 34.618 27.527
C 22.651 34.734 28.536
H 22.961 34.424 29.552
C 21.156 34.377 28.483
H 20.886 33.53  29.056
H 20.574 35.298 28.636
H 21.032 34.074 27.397
C 22.942 36.248 28.807
H 22.187 36.597 29.521
H 22.639 36.812 27.951
C 24.265 36.852 29.347
H 24.748 37.499 28.7  
H 24.884 36.004 29.451
C 24.215 37.501 30.738
H 23.285 37.384 31.216
H 24.503 38.556 30.476
C 25.245 36.985 31.767
H 26.164 37.082 31.201
C 25.101 35.489 32.107
H 24.052 35.146 32.226
H 25.411 34.906 31.239
H 25.677 35.2   32.972
C 25.265 37.861 32.977
H 26.003 37.563 33.676
H 25.427 38.861 32.682
H 24.279 37.724 33.402
