137

Mg 29.51  27.826 33.579
C 27.167 27.418 30.99 
C 32.008 27.903 31.169
H 32.777 28.009 30.428
C 31.763 28.446 35.933
H 32.424 28.727 36.779
C 26.865 27.768 35.952
H 26.124 27.711 36.777
N 29.6   27.84  31.308
C 28.479 27.686 30.513
C 28.894 27.657 29.048
H 28.511 26.799 28.618
C 30.484 27.625 29.095
H 30.956 28.488 28.613
C 30.733 27.794 30.58 
C 31.162 26.429 28.449
H 31.035 25.46  28.965
H 30.661 26.456 27.488
H 32.22  26.671 28.446
C 28.328 28.778 28.22 
H 28.505 29.703 28.733
H 27.189 28.72  28.192
C 28.608 28.64  26.752
H 28.85  29.632 26.338
H 29.392 27.96  26.502
C 27.466 28.271 25.844
O 27.341 27.181 25.332
O 26.497 29.246 25.811
N 31.619 28.033 33.576
C 32.439 28.    32.496
C 33.856 28.12  32.972
C 33.739 28.27  34.334
C 32.293 28.287 34.661
C 35.056 28.086 32.101
H 35.313 28.998 31.612
H 35.904 27.685 32.697
H 34.793 27.346 31.344
C 34.832 28.588 35.303
H 34.802 28.128 36.279
C 36.054 29.059 34.95 
H 36.273 29.52  33.974
H 36.901 29.043 35.714
N 29.295 28.122 35.645
C 30.427 28.35  36.408
C 29.977 28.546 37.808
C 28.583 28.319 37.841
C 28.171 28.045 36.404
C 30.877 29.048 38.938
H 30.374 29.257 39.887
H 31.709 28.359 39.076
H 31.256 29.993 38.581
C 27.637 28.65  39.037
H 26.968 27.874 39.235
H 28.228 29.    39.893
C 26.689 29.84  38.647
H 27.431 30.578 38.266
H 26.    29.463 37.908
H 26.151 30.21  39.537
N 27.481 27.576 33.52 
C 26.554 27.483 34.578
C 25.282 27.029 34.035
C 25.505 26.973 32.667
C 26.779 27.385 32.39 
C 24.111 26.767 34.841
H 24.063 27.221 35.854
H 23.334 27.251 34.233
H 23.894 25.765 35.001
C 24.919 26.672 31.399
O 23.765 26.333 31.209
C 25.933 26.848 30.298
H 25.593 27.58  29.59 
C 26.171 25.477 29.813
O 26.503 24.494 30.49 
O 26.085 25.536 28.436
C 26.639 24.347 27.768
H 27.571 23.997 28.146
H 25.886 23.565 27.984
H 26.624 24.579 26.673
C 25.311 28.945 25.123
H 25.313 28.156 24.384
H 24.987 29.848 24.685
C 24.379 28.411 26.179
H 24.174 29.147 26.927
C 23.848 27.231 26.454
C 24.028 25.964 25.567
H 23.671 25.026 26.108
H 23.599 26.119 24.583
H 25.102 25.932 25.431
C 22.976 27.17  27.728
H 22.904 28.166 28.182
H 23.405 26.51  28.483
C 21.512 26.87  27.469
H 21.258 26.415 26.507
H 21.05  27.799 27.378
C 20.809 26.089 28.616
H 19.877 26.626 28.803
H 21.45  25.986 29.507
C 20.381 24.669 28.468
H 19.657 24.726 27.6  
C 19.649 24.15  29.727
H 20.338 23.864 30.48 
H 18.971 24.917 30.011
H 19.063 23.251 29.451
C 21.443 23.626 27.964
H 21.802 23.913 26.951
H 20.808 22.68  27.991
C 22.764 23.427 28.823
H 22.519 23.721 29.795
H 23.597 24.067 28.591
C 23.31  21.947 28.834
H 24.398 21.965 28.739
H 22.899 21.628 27.908
C 22.984 21.064 30.101
H 23.434 21.592 30.991
C 23.753 19.693 29.874
H 23.71  19.079 30.796
H 23.351 19.067 29.064
H 24.818 19.948 29.691
C 21.477 20.815 30.39 
H 21.112 20.075 29.7  
H 20.885 21.716 30.182
C 21.191 20.375 31.843
H 20.62  21.173 32.361
H 22.146 20.129 32.353
C 20.442 19.05  31.81 
H 20.807 18.384 32.563
H 20.653 18.434 30.963
C 18.908 19.207 31.968
H 18.638 20.113 32.562
C 18.197 17.958 32.537
H 18.27  17.189 31.774
H 18.734 17.697 33.416
H 17.184 18.059 32.811
C 18.259 19.531 30.612
H 18.665 20.517 30.393
H 18.429 18.783 29.896
H 17.15  19.528 30.881
