137

Mg 20.378 27.569 31.728
C 21.629 24.685 33.094
C 17.961 27.61  34.171
H 17.282 27.63  35.04 
C 18.948 30.298 30.313
H 18.459 31.136 29.797
C 22.869 27.609 29.46 
H 23.66  27.632 28.668
N 19.904 26.256 33.462
C 20.577 25.233 33.905
C 19.952 24.59  35.18 
H 19.766 23.536 34.977
C 18.578 25.316 35.279
H 18.489 25.707 36.321
C 18.807 26.486 34.226
C 17.425 24.426 34.909
H 17.789 23.988 33.974
H 17.202 23.703 35.691
H 16.553 25.027 34.647
C 20.926 24.77  36.379
H 20.932 25.849 36.551
H 21.922 24.484 36.136
C 20.501 24.056 37.588
H 19.639 23.449 37.452
H 21.345 23.423 37.93 
C 20.149 24.969 38.772
O 20.963 25.533 39.535
O 18.828 25.228 38.903
N 18.789 28.807 32.219
C 17.924 28.724 33.273
C 16.868 29.737 33.178
C 17.108 30.511 32.036
C 18.354 29.891 31.484
C 15.692 29.763 34.024
H 15.524 28.876 34.634
H 15.733 30.581 34.773
H 14.896 29.892 33.36 
C 16.489 31.706 31.471
H 16.902 32.166 30.574
C 15.374 32.402 31.899
H 14.848 32.198 32.883
H 15.101 33.334 31.362
N 20.865 28.745 30.204
C 20.201 29.851 29.78 
C 20.907 30.515 28.707
C 22.047 29.746 28.454
C 21.998 28.662 29.427
C 20.518 31.793 27.917
H 19.557 32.241 28.247
H 21.294 32.523 28.011
H 20.445 31.479 26.872
C 23.09  30.027 27.367
H 23.206 29.066 26.864
H 22.754 30.62  26.552
C 24.463 30.475 27.931
H 24.435 31.323 28.676
H 24.924 29.604 28.384
H 25.129 30.737 27.103
N 21.884 26.456 31.322
C 22.817 26.499 30.262
C 23.609 25.281 30.196
C 23.209 24.56  31.279
C 22.16  25.296 31.95 
C 24.666 24.886 29.187
H 24.606 25.573 28.362
H 25.714 24.907 29.64 
H 24.433 23.87  28.837
C 23.311 23.326 31.969
O 23.965 22.373 31.627
C 22.518 23.494 33.324
H 23.228 23.625 34.039
C 21.758 22.263 33.675
O 21.008 21.686 32.91 
O 21.95  21.842 34.948
C 21.052 20.731 35.381
H 20.018 20.975 35.34 
H 21.222 19.874 34.699
H 21.264 20.311 36.398
C 18.48  26.266 39.855
H 19.091 27.195 40.076
H 18.228 25.896 40.853
C 17.161 26.839 39.272
H 16.325 26.035 39.4  
C 16.94  27.974 38.716
C 17.974 28.982 38.464
H 18.862 28.462 38.034
H 17.546 29.67  37.676
H 18.257 29.489 39.424
C 15.517 28.38  38.316
H 15.03  27.477 38.659
H 15.435 28.432 37.194
C 14.887 29.569 39.014
H 15.682 30.031 39.529
H 14.083 29.358 39.739
C 14.06  30.53  38.108
H 13.065 30.489 38.453
H 14.224 30.182 37.077
C 14.397 32.059 38.177
H 15.428 32.04  37.872
C 14.215 32.693 39.598
H 13.189 33.025 39.732
H 14.397 31.893 40.335
H 14.972 33.472 39.733
C 13.619 32.802 37.086
H 12.57  32.762 37.338
H 13.833 32.321 36.082
C 14.022 34.279 36.978
H 15.101 34.453 36.948
H 13.675 34.915 37.73 
C 13.584 34.896 35.598
H 12.847 34.293 35.032
H 14.614 34.893 35.132
C 13.115 36.373 35.652
H 13.832 36.934 36.207
C 11.741 36.498 36.348
H 11.081 37.244 35.809
H 11.259 35.557 36.461
H 11.949 36.822 37.376
C 13.117 37.085 34.283
H 12.691 38.053 34.331
H 12.399 36.546 33.652
C 14.506 37.144 33.555
H 14.678 36.317 32.967
H 15.235 37.164 34.387
C 14.654 38.344 32.602
H 15.678 38.64  32.752
H 14.045 39.185 32.917
C 14.363 38.001 31.075
H 14.965 37.145 30.706
C 14.786 39.314 30.309
H 14.134 39.378 29.459
H 14.646 40.242 30.89 
H 15.801 39.3   29.903
C 12.962 37.636 30.662
H 12.942 37.409 29.601
H 12.666 36.686 31.111
H 12.296 38.419 31.101
