137

Mg 22.519 31.182 35.249
C 21.858 29.352 38.044
C 19.301 30.826 34.224
H 18.323 30.634 33.851
C 23.147 32.922 32.438
H 23.417 33.442 31.596
C 25.952 30.654 35.744
H 27.013 30.448 35.838
N 20.799 30.356 36.109
C 20.708 29.688 37.316
C 19.315 29.133 37.55 
H 19.401 28.024 37.663
C 18.587 29.503 36.256
H 17.77  30.217 36.391
C 19.62  30.287 35.458
C 18.102 28.248 35.501
H 17.692 28.434 34.538
H 18.866 27.403 35.436
H 17.278 27.813 36.091
C 18.764 29.707 38.895
H 18.645 30.743 38.669
H 19.547 29.675 39.622
C 17.47  29.015 39.443
H 17.178 28.195 38.739
H 17.635 28.613 40.435
C 16.228 30.001 39.552
O 15.459 30.226 40.487
O 16.206 30.679 38.363
N 21.35  31.933 33.715
C 20.069 31.617 33.44 
C 19.616 32.367 32.259
C 20.76  33.108 31.802
C 21.828 32.724 32.681
C 18.264 32.274 31.71 
H 18.151 32.635 30.655
H 17.86  31.324 31.884
H 17.667 32.957 32.297
C 20.874 34.056 30.674
H 21.759 34.333 30.197
C 19.832 34.837 30.269
H 18.894 34.85  30.773
H 20.011 35.584 29.427
N 24.224 31.548 34.15 
C 24.254 32.262 33.063
C 25.662 32.482 32.581
C 26.462 32.037 33.591
C 25.563 31.371 34.56 
C 26.053 33.146 31.292
H 25.52  32.71  30.495
H 25.671 34.167 31.466
H 27.104 33.098 31.064
C 27.983 32.075 33.616
H 28.362 31.083 33.595
H 28.398 32.615 32.756
C 28.522 32.79  34.933
H 29.625 32.817 34.937
H 28.199 33.866 34.914
H 28.165 32.322 35.856
N 23.697 30.326 36.644
C 25.068 30.245 36.743
C 25.389 29.466 37.887
C 24.139 29.156 38.44 
C 23.129 29.701 37.648
C 26.778 29.058 38.284
H 27.053 28.086 37.855
H 27.489 29.827 38.028
H 26.804 28.979 39.369
C 23.509 28.393 39.49 
O 23.981 27.657 40.356
C 21.999 28.544 39.306
H 21.564 28.991 40.182
C 21.548 27.172 39.285
O 21.739 26.335 38.374
O 20.86  26.86  40.433
C 20.325 25.55  40.382
H 20.012 25.264 41.394
H 19.466 25.533 39.787
H 21.103 24.816 40.118
C 15.177 31.685 38.13 
H 14.999 32.344 38.962
H 14.192 31.237 37.847
C 15.846 32.44  37.026
H 15.676 32.06  36.001
C 16.568 33.582 37.164
C 16.82  34.238 38.558
H 16.793 33.54  39.341
H 17.794 34.75  38.532
H 15.924 34.868 38.687
C 17.144 34.178 35.885
H 17.341 33.311 35.233
H 18.109 34.546 36.095
C 16.28 35.33 35.41
H 16.652 36.231 35.922
H 15.268 35.186 35.73 
C 16.328 35.438 33.913
H 15.487 34.894 33.539
H 17.254 35.035 33.488
C 16.092 36.916 33.435
H 15.209 37.332 33.977
C 15.743 36.915 31.861
H 16.124 37.894 31.486
H 16.129 36.062 31.357
H 14.64  36.813 31.788
C 17.23  37.898 33.753
H 17.355 38.134 34.754
H 17.047 38.796 33.184
C 18.645 37.331 33.458
H 18.445 36.824 32.56 
H 19.155 36.673 34.179
C 19.619 38.588 33.212
H 20.431 38.417 33.851
H 19.12  39.445 33.684
C 20.044 38.98  31.812
H 19.21  38.679 31.171
C 21.325 38.212 31.424
H 21.496 38.618 30.37 
H 22.15  38.552 32.112
H 21.18  37.144 31.463
C 20.235 40.509 31.714
H 20.671 40.728 30.727
H 20.94  40.789 32.451
C 18.952 41.289 31.898
H 19.081 41.889 32.772
H 18.08  40.759 32.275
C 18.535 42.219 30.771
H 17.489 42.28  30.71 
H 18.856 41.792 29.828
C 19.156 43.692 30.78 
H 20.21  43.68  31.008
C 18.513 44.471 31.868
H 19.065 45.442 32.028
H 17.515 44.676 31.417
H 18.35  43.956 32.814
C 19.094 44.236 29.339
H 19.391 45.285 29.32 
H 19.902 43.618 28.879
H 18.15  44.014 28.959
