137

Mg 28.83  28.311 33.025
C 27.19 26.4  30.75
C 31.483 28.546 30.771
H 32.213 28.859 29.98 
C 30.544 30.153 35.28 
H 31.075 30.799 35.96 
C 26.309 27.831 35.267
H 25.582 27.579 35.968
N 29.305 27.527 30.964
C 28.361 26.847 30.181
C 29.007 26.5   28.888
H 29.066 25.47  28.646
C 30.454 26.914 29.035
H 30.701 27.588 28.215
C 30.455 27.658 30.361
C 31.435 25.707 29.14 
H 30.86  24.826 29.579
H 31.556 25.437 28.072
H 32.367 25.847 29.673
C 28.321 27.277 27.759
H 28.668 28.306 27.831
H 27.206 27.286 27.855
C 28.665 26.75  26.319
H 29.379 27.423 25.949
H 28.897 25.756 26.369
C 27.435 26.844 25.374
O 27.432 27.354 24.238
O 26.394 26.015 25.768
N 30.778 29.123 33.054
C 31.617 29.227 31.983
C 32.772 30.005 32.387
C 32.545 30.447 33.681
C 31.205 30.018 34.047
C 34.076 30.214 31.497
H 34.532 29.26  31.443
H 33.824 30.523 30.487
H 34.83  30.889 31.914
C 33.396 31.294 34.557
H 32.921 32.087 35.09 
C 34.697 31.138 34.76 
H 35.284 30.267 34.326
H 35.283 31.778 35.492
N 28.463 28.961 34.964
C 29.3   29.71  35.742
C 28.742 29.905 37.059
C 27.431 29.319 37.02 
C 27.381 28.652 35.722
C 29.419 30.632 38.153
H 28.656 30.961 38.848
H 30.118 29.894 38.593
H 29.942 31.568 37.879
C 26.32  29.227 38.03 
H 26.055 28.229 38.09 
H 26.715 29.615 38.951
C 25.008 30.028 37.728
H 24.393 29.63  36.906
H 24.385 30.04  38.608
H 25.338 30.998 37.398
N 27.121 27.378 33.044
C 26.14  27.308 33.976
C 25.036 26.42  33.496
C 25.505 26.048 32.183
C 26.672 26.659 31.986
C 23.794 25.995 34.183
H 23.226 26.838 34.502
H 23.118 25.427 33.497
H 24.077 25.363 35.009
C 25.049 25.307 31.074
O 23.964 24.793 30.77 
C 26.119 25.555 30.   
H 25.553 26.103 29.234
C 26.591 24.195 29.587
O 27.356 23.471 30.217
O 25.889 23.784 28.471
C 26.172 22.387 28.281
H 27.261 22.316 28.038
H 25.723 21.693 28.996
H 25.643 22.251 27.383
C 25.211 25.897 24.931
H 25.53  25.494 23.97 
H 24.726 26.767 24.741
C 24.316 24.885 25.648
H 24.269 25.221 26.673
C 23.621 23.781 25.266
C 23.71  23.269 23.854
H 24.186 23.954 23.127
H 24.426 22.475 23.879
H 22.786 22.956 23.358
C 22.759 23.018 26.343
H 23.057 23.455 27.308
H 23.143 21.966 26.316
C 21.237 23.029 26.003
H 20.844 22.106 25.65 
H 21.221 23.699 25.152
C 20.466 23.634 27.167
H 20.291 24.648 26.821
H 21.061 23.68  28.054
C 19.056 23.    27.37 
H 18.659 22.648 26.421
C 17.942 24.001 27.857
H 18.298 24.531 28.75 
H 17.737 24.683 27.046
H 17.109 23.36  28.163
C 19.123 21.734 28.309
H 19.888 21.074 27.99 
H 18.15  21.246 28.228
C 19.163 21.999 29.828
H 18.279 22.523 30.184
H 19.888 22.705 29.914
C 19.668 20.781 30.593
H 20.704 20.892 30.826
H 19.685 19.828 30.006
C 19.087 20.452 31.997
H 19.31  21.359 32.62 
C 19.823 19.248 32.605
H 19.219 18.961 33.433
H 19.716 18.421 31.894
H 20.804 19.447 32.899
C 17.511 20.326 31.99 
H 17.132 19.6   31.333
H 17.053 21.149 31.586
C 16.68  20.232 33.325
H 15.881 20.978 33.354
H 17.387 20.478 34.099
C 16.031 18.795 33.62 
H 16.404 18.47  34.574
H 16.321 18.106 32.784
C 14.48  18.752 33.693
H 14.153 19.317 34.639
C 13.999 17.258 34.006
H 14.21  16.788 33.01 
H 14.619 16.773 34.79 
H 12.958 17.151 34.284
C 13.738 19.284 32.464
H 13.997 18.635 31.597
H 12.698 19.333 32.719
H 14.052 20.273 32.263
