137

Mg 29.891 29.191 33.241
C 28.329 28.534 36.253
C 26.695 29.874 31.876
H 25.71  29.965 31.481
C 31.375 30.107 30.439
H 31.854 30.375 29.525
C 33.03  28.685 34.753
H 33.992 28.392 35.139
N 27.782 29.19  33.99 
C 27.414 28.881 35.267
C 25.846 28.903 35.424
H 25.589 27.989 35.927
C 25.401 29.078 33.917
H 24.742 29.876 33.796
C 26.718 29.464 33.212
C 24.714 27.865 33.304
H 24.6   28.026 32.255
H 25.324 26.999 33.589
H 23.714 27.759 33.773
C 25.565 30.148 36.307
H 25.672 31.105 35.763
H 26.179 30.268 37.193
C 24.102 30.272 36.81 
H 23.634 29.297 36.954
H 24.176 30.721 37.839
C 23.049 30.983 35.995
O 22.799 32.195 36.047
O 22.507 30.157 34.996
N 29.117 29.965 31.428
C 27.752 30.158 31.038
C 27.764 30.651 29.676
C 29.124 30.661 29.271
C 29.969 30.218 30.41 
C 26.506 31.212 28.912
H 26.35  32.211 29.364
H 26.649 31.413 27.816
H 25.61  30.639 29.114
C 29.689 31.048 27.962
H 30.567 31.689 27.953
C 29.059 30.666 26.762
H 28.105 30.068 26.77 
H 29.46  30.948 25.791
N 31.857 29.438 32.654
C 32.303 29.863 31.446
C 33.806 29.744 31.38 
C 34.232 29.397 32.661
C 33.046 29.145 33.432
C 34.585 30.019 30.126
H 34.043 29.525 29.306
H 34.54  31.063 29.815
H 35.565 29.473 30.146
C 35.665 29.334 33.114
H 35.754 28.48  33.8  
H 36.254 29.129 32.216
C 36.098 30.647 33.817
H 37.199 30.732 33.942
H 35.678 31.561 33.333
H 35.649 30.646 34.787
N 30.54  28.783 35.1  
C 31.857 28.504 35.588
C 31.773 28.18  36.962
C 30.417 28.099 37.242
C 29.719 28.555 36.105
C 32.914 27.791 37.797
H 33.79  28.414 37.485
H 32.604 27.916 38.842
H 33.146 26.749 37.499
C 29.414 27.789 38.247
O 29.626 27.456 39.437
C 28.021 28.104 37.709
H 27.607 28.947 38.264
C 27.243 26.829 37.879
O 27.654 25.723 37.58 
O 26.005 27.179 38.318
C 25.021 26.145 38.643
H 25.323 25.111 38.371
H 24.743 26.067 39.743
H 24.096 26.482 38.136
C 21.652 30.854 34.069
H 22.117 31.726 33.709
H 20.63  31.134 34.439
C 21.52  29.815 33.003
H 21.179 28.85  33.385
C 21.969 29.673 31.729
C 22.692 30.858 31.035
H 21.98  31.49  30.418
H 23.189 31.455 31.83 
H 23.565 30.572 30.435
C 21.752 28.422 30.943
H 21.195 27.693 31.455
H 22.756 28.147 30.595
C 20.905 28.768 29.715
H 20.277 29.636 30.002
H 20.049 28.103 29.441
C 21.675 29.132 28.479
H 22.632 28.7   28.7  
H 21.848 30.201 28.323
C 21.2   28.47  27.108
H 20.989 27.434 27.256
C 22.22  28.602 25.97 
H 21.775 28.326 24.986
H 22.77  29.565 25.755
H 23.155 28.012 26.251
C 19.865 29.196 26.635
H 19.057 29.023 27.277
H 19.502 28.639 25.78 
C 19.878 30.77  26.416
H 19.717 30.913 25.315
H 20.94  30.939 26.707
C 19.04  31.651 27.33 
H 19.698 32.236 27.951
H 18.356 31.089 27.918
C 18.26  32.755 26.607
H 17.443 32.277 25.985
C 19.081 33.718 25.668
H 19.558 33.224 24.852
H 18.451 34.483 25.202
H 19.825 34.338 26.112
C 17.495 33.541 27.705
H 18.101 34.33  28.229
H 17.222 32.877 28.541
C 16.295 34.312 27.214
H 16.414 34.232 26.091
H 16.236 35.363 27.593
C 15.001 33.505 27.543
H 15.113 32.62  28.188
H 14.736 33.163 26.546
C 13.798 34.259 28.179
H 14.023 34.283 29.244
C 12.502 33.393 27.924
H 12.57  32.346 28.157
H 11.713 33.705 28.593
H 12.166 33.4   26.888
C 13.442 35.639 27.631
H 14.273 36.316 27.759
H 13.258 35.678 26.557
H 12.574 35.972 28.131
