137

Mg 36.139 31.878 35.971
C 33.722 30.17  34.126
C 38.159 31.881 33.173
H 38.843 31.839 32.33 
C 38.667 33.451 37.679
H 39.384 34.145 38.162
C 34.44  31.368 38.865
H 33.966 31.163 39.792
N 35.862 31.26  33.886
C 34.768 30.615 33.379
C 34.887 30.459 31.81 
H 34.696 29.403 31.556
C 36.404 30.721 31.65 
H 36.55  31.497 30.895
C 36.882 31.319 33.024
C 37.229 29.505 31.177
H 38.16  29.989 30.92 
H 37.384 28.622 31.808
H 36.824 29.209 30.155
C 33.987 31.494 31.02 
H 34.328 32.45  31.143
H 32.947 31.25  31.438
C 33.897 31.201 29.552
H 34.297 32.021 29.04 
H 34.431 30.325 29.289
C 32.451 31.028 29.107
O 31.774 30.09  29.354
O 32.061 32.121 28.395
N 38.044 32.623 35.491
C 38.698 32.482 34.257
C 39.986 33.128 34.343
C 40.134 33.662 35.634
C 38.93  33.201 36.348
C 40.854 33.218 33.08 
H 41.712 33.912 33.134
H 41.193 32.217 32.829
H 40.288 33.579 32.217
C 41.254 34.443 36.275
H 41.532 34.333 37.386
C 42.026 35.37  35.57 
H 41.771 35.618 34.572
H 42.795 36.01  36.088
N 36.528 32.319 37.981
C 37.644 33.024 38.462
C 37.516 33.149 39.932
C 36.246 32.613 40.218
C 35.679 32.083 39.009
C 38.58  33.66  40.876
H 38.783 34.695 40.798
H 38.474 33.472 41.923
H 39.494 33.237 40.612
C 35.579 32.344 41.607
H 35.368 31.305 41.843
H 36.208 32.623 42.375
C 34.244 33.148 41.934
H 33.677 32.852 42.791
H 34.405 34.192 41.954
H 33.606 32.947 41.08 
N 34.498 31.028 36.465
C 33.863 30.925 37.669
C 32.553 30.312 37.489
C 32.532 29.875 36.144
C 33.65  30.448 35.521
C 31.593 29.828 38.537
H 31.958 28.916 39.05 
H 31.255 30.551 39.196
H 30.715 29.428 37.937
C 31.834 29.051 35.248
O 30.849 28.316 35.469
C 32.477 29.298 33.888
H 31.661 29.738 33.284
C 32.71  27.941 33.421
O 33.051 26.981 34.105
O 32.56  27.873 32.054
C 32.775 26.589 31.276
H 32.254 26.724 30.366
H 33.902 26.577 31.055
H 32.363 25.712 31.836
C 30.804 31.974 27.764
H 29.996 31.718 28.467
H 30.824 31.137 27.1  
C 30.443 33.244 27.049
H 30.867 33.326 26.043
C 29.672 34.268 27.431
C 29.174 34.381 28.889
H 29.098 35.383 29.231
H 28.145 34.009 28.831
H 29.747 33.836 29.641
C 29.23  35.375 26.519
H 29.877 35.42  25.661
H 29.441 36.299 27.052
C 27.812 35.312 26.12 
H 27.25  34.452 26.48 
H 27.7   35.218 25.056
C 26.875 36.471 26.564
H 27.325 36.892 27.512
H 26.013 35.917 26.927
C 26.741 37.548 25.403
H 26.518 37.106 24.426
C 28.022 38.284 25.094
H 28.484 38.598 26.037
H 28.777 37.592 24.592
H 27.951 39.016 24.31 
C 25.537 38.574 25.694
H 25.503 39.427 24.933
H 25.864 39.038 26.575
C 24.121 37.979 25.652
H 24.228 37.031 25.08 
H 23.437 38.607 25.111
C 23.452 37.962 27.053
H 22.512 38.531 26.959
H 24.099 38.449 27.776
C 22.979 36.552 27.522
H 23.873 35.876 27.332
C 21.721 36.031 26.772
H 21.407 35.093 27.183
H 20.957 36.73  26.932
H 21.741 36.026 25.685
C 22.662 36.449 29.105
H 22.205 35.497 29.283
H 21.933 37.259 29.367
C 23.909 36.571 30.017
H 23.846 37.541 30.544
H 24.782 36.587 29.354
C 24.056 35.537 31.105
H 23.17  34.907 31.076
H 23.983 35.975 32.058
C 25.404 34.761 31.129
H 26.211 35.475 30.833
C 25.385 33.747 29.991
H 25.37  34.146 29.016
H 26.28  33.095 29.959
H 24.398 33.186 30.159
C 25.7   34.076 32.465
H 26.698 33.64  32.243
H 25.873 34.879 33.234
H 24.933 33.311 32.718
