137

Mg 26.611 32.43  33.993
C 26.132 31.126 37.129
C 23.279 32.618 33.602
H 22.219 32.471 33.367
C 27.063 34.135 31.161
H 27.2   34.548 30.163
C 29.875 32.049 34.451
H 30.913 31.775 34.615
N 24.959 31.997 35.166
C 24.949 31.524 36.467
C 23.573 31.431 37.092
H 23.341 30.499 37.576
C 22.682 31.64  35.877
H 21.999 32.484 36.111
C 23.693 32.115 34.823
C 21.79  30.391 35.458
H 22.537 29.673 35.179
H 21.305 30.084 36.414
H 21.002 30.468 34.716
C 23.363 32.527 38.204
H 23.114 33.462 37.795
H 24.273 32.628 38.676
C 22.241 32.117 39.227
H 21.501 31.497 38.685
H 22.612 31.589 40.067
C 21.421 33.196 39.824
O 21.723 33.697 40.877
O 20.419 33.589 38.983
N 25.38  33.156 32.56 
C 24.028 33.151 32.557
C 23.542 33.598 31.302
C 24.619 34.087 30.606
C 25.748 33.839 31.423
C 22.137 33.567 30.834
H 22.038 33.095 29.859
H 21.56  33.041 31.575
H 21.643 34.498 30.845
C 24.728 34.478 29.168
H 25.7   34.487 28.639
C 23.738 35.08  28.412
H 22.763 35.28  28.83 
H 23.849 35.394 27.355
N 28.209 33.049 32.983
C 28.213 33.706 31.814
C 29.555 34.11  31.49 
C 30.374 33.558 32.407
C 29.497 32.836 33.31 
C 29.88  34.773 30.213
H 29.475 34.173 29.387
H 29.279 35.712 30.322
H 30.956 35.026 30.098
C 31.885 33.562 32.496
H 32.227 32.472 32.409
H 32.33  34.214 31.727
C 32.516 34.104 33.763
H 32.587 33.385 34.581
H 33.537 34.485 33.657
H 31.862 34.932 33.949
N 27.753 31.71  35.414
C 29.091 31.588 35.479
C 29.557 31.099 36.823
C 28.382 30.892 37.516
C 27.351 31.247 36.614
C 30.93  30.776 37.255
H 31.016 30.689 38.338
H 31.219 29.865 36.796
H 31.577 31.647 36.962
C 27.807 30.446 38.774
O 28.264 30.056 39.783
C 26.267 30.551 38.52 
H 25.904 31.342 39.141
C 25.559 29.27  38.775
O 25.781 28.172 38.308
O 24.565 29.564 39.669
C 23.566 28.507 39.764
H 23.009 28.429 38.796
H 23.959 27.508 39.966
H 22.878 28.8   40.548
C 19.79  34.838 39.473
H 20.526 35.643 39.393
H 19.49  34.868 40.527
C 18.602 35.238 38.649
H 18.923 35.594 37.688
C 17.269 34.993 38.827
C 16.692 34.582 40.149
H 16.377 33.514 39.956
H 17.417 34.561 40.949
H 15.928 35.106 40.59 
C 16.239 35.525 37.793
H 16.716 36.037 36.954
H 15.511 36.149 38.279
C 15.614 34.387 37.025
H 14.904 33.799 37.607
H 16.303 33.59  36.653
C 14.813 34.949 35.849
H 15.058 35.991 35.643
H 13.722 34.933 36.079
C 15.09  34.405 34.428
H 16.154 34.331 34.2  
C 14.434 35.273 33.337
H 14.546 34.738 32.396
H 13.41  35.437 33.538
H 14.972 36.236 33.295
C 14.459 32.916 34.26 
H 15.095 32.22  34.876
H 14.673 32.557 33.21 
C 12.872 32.781 34.444
H 12.424 32.803 33.496
H 12.465 33.638 34.932
C 12.386 31.485 35.149
H 12.076 31.859 36.212
H 13.194 30.778 35.303
C 11.124 30.728 34.639
H 10.238 31.357 34.459
C 10.672 29.648 35.694
H  9.854 29.033 35.222
H 11.484 28.997 35.851
H 10.316 30.123 36.648
C 11.451 30.15  33.231
H 12.175 29.331 33.322
H 11.953 30.876 32.59 
C 10.215 29.584 32.497
H  9.325 29.766 33.009
H 10.251 28.491 32.511
C  9.941 30.048 31.084
H  9.467 29.174 30.648
H 10.893 30.289 30.599
C  8.925 31.053 30.773
H  7.966 30.617 31.107
C  8.769 31.24  29.265
H  7.92  31.876 29.167
H  9.624 31.751 28.781
H  8.62  30.312 28.607
C  9.11  32.435 31.417
H  8.385 33.144 30.971
H  8.726 32.383 32.444
H 10.117 32.812 31.444
