137

Mg 21.101 23.693 30.582
C 23.868 21.793 29.609
C 23.226 26.08  31.876
H 23.911 26.672 32.414
C 18.602 25.894 30.783
H 17.711 26.587 30.792
C 19.167 21.475 28.964
H 18.637 20.706 28.356
N 23.191 23.917 30.66 
C 24.208 23.026 30.229
C 25.613 23.516 30.491
H 26.139 22.733 31.018
C 25.327 24.665 31.445
H 25.815 25.587 31.093
C 23.813 24.952 31.281
C 25.651 24.35  32.974
H 24.929 23.616 33.37 
H 26.69  23.939 33.178
H 25.584 25.36  33.469
C 26.425 23.863 29.171
H 25.707 24.511 28.559
H 26.414 22.987 28.553
C 27.809 24.421 29.264
H 28.073 24.777 30.252
H 28.537 23.667 29.078
C 28.047 25.604 28.436
O 28.984 25.833 27.693
O 27.118 26.525 28.879
N 20.91  25.659 31.437
C 21.899 26.452 31.859
C 21.37  27.696 32.332
C 19.986 27.65  32.095
C 19.808 26.377 31.371
C 22.184 28.731 32.978
H 22.399 28.441 33.994
H 23.125 28.747 32.417
H 21.693 29.781 33.032
C 18.896 28.535 32.417
H 17.986 28.129 32.818
C 19.103 29.873 32.417
H 20.08  30.243 31.971
H 18.378 30.655 32.791
N 19.182 23.661 30.039
C 18.297 24.694 30.184
C 17.006 24.302 29.635
C 17.149 22.962 29.168
C 18.575 22.657 29.37 
C 15.686 25.069 29.559
H 14.994 24.865 30.469
H 15.908 26.147 29.55 
H 14.989 24.829 28.728
C 16.146 22.035 28.446
H 15.198 22.564 28.195
H 16.628 21.788 27.476
C 16.    20.727 29.206
H 16.003 20.842 30.261
H 15.096 20.257 28.837
H 16.832 20.04  28.952
N 21.372 21.965 29.593
C 20.471 21.106 29.128
C 21.093 19.932 28.646
C 22.446 20.106 28.843
C 22.591 21.407 29.344
C 20.395 18.841 27.927
H 19.671 18.451 28.568
H 19.996 19.095 26.93 
H 21.162 18.093 27.618
C 23.778 19.504 28.724
O 24.246 18.481 28.31 
C 24.775 20.646 29.205
H 25.506 20.805 28.467
C 25.366 19.952 30.344
O 24.864 19.853 31.451
O 26.481 19.294 30.042
C 27.118 18.506 31.116
H 27.425 19.095 31.931
H 26.405 17.772 31.349
H 27.974 17.885 30.775
C 27.501 27.879 28.517
H 27.617 28.056 27.419
H 28.516 27.999 29.043
C 26.613 28.929 29.161
H 26.516 28.806 30.228
C 25.877 29.921 28.613
C 25.713 30.203 27.159
H 26.127 31.17  26.891
H 26.318 29.536 26.534
H 24.678 30.107 26.811
C 25.031 30.778 29.6  
H 25.227 30.462 30.603
H 24.005 30.457 29.376
C 25.487 32.21  29.441
H 25.213 32.739 28.556
H 26.555 32.197 29.511
C 24.99  33.126 30.631
H 24.509 32.424 31.335
H 24.244 33.785 30.294
C 25.978 34.019 31.348
H 26.695 34.409 30.639
C 26.772 33.13  32.419
H 27.275 32.437 31.755
H 27.643 33.678 32.804
H 26.111 32.505 33.069
C 25.278 35.156 32.14 
H 25.956 35.672 32.774
H 24.571 34.712 32.734
C 24.692 36.223 31.163
H 23.728 35.971 30.782
H 25.315 36.276 30.35 
C 24.474 37.62  31.811
H 25.454 38.201 31.718
H 24.463 37.29  32.809
C 23.287 38.482 31.39 
H 22.495 37.755 31.239
C 23.543 39.151 30.005
H 24.244 39.958 29.979
H 23.952 38.477 29.221
H 22.623 39.623 29.646
C 22.98  39.481 32.557
H 23.834 40.204 32.665
H 22.981 38.873 33.487
C 21.733 40.369 32.473
H 20.987 39.953 31.836
H 22.05  41.335 32.095
C 21.063 40.535 33.872
H 21.602 40.086 34.659
H 20.088 40.141 33.909
C 20.968 41.92  34.512
H 21.964 42.244 34.695
C 20.273 41.944 35.875
H 19.998 42.98  36.154
H 19.304 41.436 35.71 
H 20.798 41.367 36.603
C 20.429 43.046 33.608
H 19.452 42.725 33.119
H 20.195 43.912 34.154
H 21.145 43.302 32.91 
