137

Mg 36.609 33.868 34.884
C 33.864 32.122 33.817
C 38.458 32.547 32.313
H 39.01  32.099 31.53 
C 39.438 35.401 36.138
H 40.383 35.727 36.57 
C 34.855 34.848 37.771
H 34.352 35.226 38.664
N 36.199 32.604 33.217
C 35.019 31.989 33.   
C 35.082 31.095 31.789
H 34.827 30.104 32.188
C 36.609 31.202 31.374
H 36.648 31.728 30.417
C 37.146 32.237 32.292
C 37.31  29.818 31.448
H 38.173 29.915 30.842
H 37.611 29.506 32.475
H 36.618 29.063 30.947
C 34.069 31.486 30.69 
H 34.113 32.52  30.404
H 33.055 31.513 30.999
C 34.095 30.598 29.411
H 34.652 31.124 28.66 
H 34.705 29.721 29.566
C 32.755 30.03  28.903
O 32.566 28.885 28.561
O 31.758 31.051 28.684
N 38.651 33.935 34.294
C 39.219 33.401 33.191
C 40.635 33.718 33.13 
C 40.872 34.51  34.214
C 39.586 34.665 34.946
C 41.474 33.261 32.03 
H 40.809 32.918 31.283
H 41.984 34.097 31.548
H 42.227 32.514 32.326
C 42.166 35.155 34.704
H 42.269 35.291 35.829
C 43.204 35.511 33.921
H 43.25  35.486 32.799
H 44.016 36.058 34.42 
N 37.098 34.882 36.64 
C 38.334 35.48  36.952
C 38.215 36.205 38.179
C 36.889 36.041 38.667
C 36.236 35.203 37.689
C 39.319 37.001 38.798
H 38.953 38.023 39.086
H 39.56  36.571 39.768
H 40.167 37.147 38.137
C 36.297 36.703 39.869
H 35.835 35.931 40.486
H 37.152 37.181 40.355
C 35.186 37.679 39.536
H 35.443 38.219 38.697
H 34.174 37.258 39.394
H 35.079 38.418 40.294
N 34.768 33.538 35.635
C 34.209 34.037 36.811
C 32.826 33.603 36.822
C 32.653 32.849 35.707
C 33.861 32.754 35.026
C 31.854 34.049 37.708
H 30.924 33.672 37.293
H 31.978 33.653 38.684
H 31.699 35.145 37.675
C 31.659 32.097 34.957
O 30.501 31.817 35.28 
C 32.419 31.543 33.749
H 31.883 31.917 32.872
C 32.174 30.045 33.837
O 32.681 29.301 34.678
O 31.547 29.603 32.607
C 31.518 28.168 32.353
H 32.548 27.973 32.213
H 31.095 27.596 33.15 
H 31.127 28.038 31.35 
C 30.587 30.466 27.974
H 30.024 29.844 28.704
H 30.848 29.837 27.236
C 29.772 31.559 27.38 
H 30.338 32.242 26.695
C 28.57  32.038 27.798
C 27.798 31.556 28.984
H 27.513 32.395 29.69 
H 26.975 30.972 28.664
H 28.453 30.885 29.585
C 27.912 33.295 27.132
H 28.439 33.504 26.165
H 28.047 34.173 27.751
C 26.457 33.019 26.75 
H 26.366 31.944 26.604
H 26.238 33.486 25.791
C 25.311 33.399 27.773
H 24.694 34.165 27.287
H 25.734 33.858 28.667
C 24.294 32.316 28.269
H 24.801 31.606 28.948
C 23.595 31.507 27.095
H 23.277 32.155 26.244
H 24.153 30.649 26.823
H 22.743 31.019 27.565
C 23.208 33.01  29.16 
H 22.725 33.809 28.673
H 23.596 33.522 30.062
C 22.113 32.195 29.867
H 22.035 32.496 30.87 
H 22.462 31.122 29.922
C 20.692 32.38  29.282
H 20.283 31.318 29.153
H 20.832 32.705 28.242
C 19.576 33.238 30.051
H 19.997 34.215 30.2  
C 19.351 32.723 31.47 
H 18.395 33.126 31.819
H 19.181 31.665 31.572
H 20.245 32.931 32.156
C 18.297 33.335 29.193
H 17.94  32.294 29.067
H 18.502 33.83  28.225
C 17.191 34.258 29.821
H 16.892 35.006 29.049
H 17.677 34.876 30.55 
C 15.966 33.531 30.302
H 16.333 32.799 31.052
H 15.551 33.139 29.369
C 14.829 34.359 30.836
H 14.571 35.102 30.168
C 15.226 34.996 32.234
H 14.415 35.665 32.546
H 15.471 34.322 33.12 
H 16.206 35.556 32.219
C 13.57  33.521 30.991
H 12.64  34.102 31.246
H 13.34  33.105 30.011
H 13.794 32.703 31.668
