137

Mg 22.547 18.431 31.383
C 25.287 17.131 29.786
C 23.79  21.626 30.69 
H 24.176 22.599 30.508
C 19.545 19.721 32.353
H 18.618 20.11  32.679
C 21.267 15.259 31.816
H 20.854 14.303 32.148
N 24.39  19.252 30.368
C 25.359 18.502 29.817
C 26.509 19.374 29.302
H 27.413 19.073 29.767
C 26.161 20.776 29.951
H 25.994 21.495 29.136
C 24.711 20.544 30.366
C 27.073 21.152 31.132
H 28.042 21.443 30.8  
H 26.557 22.008 31.498
H 27.175 20.359 31.906
C 26.605 19.468 27.768
H 25.546 19.565 27.417
H 26.784 18.484 27.38 
C 27.639 20.467 27.24 
H 28.229 20.921 28.011
H 28.25  19.837 26.537
C 27.165 21.585 26.298
O 27.774 22.032 25.322
O 25.912 22.045 26.671
N 21.781 20.38  31.505
C 22.432 21.603 31.244
C 21.528 22.712 31.562
C 20.22  22.152 31.779
C 20.457 20.636 31.863
C 21.911 24.108 31.476
H 22.61  24.304 30.678
H 21.047 24.776 31.397
H 22.428 24.386 32.423
C 19.053 22.877 32.264
H 18.069 22.644 31.843
C 19.118 23.866 33.151
H 20.033 24.251 33.708
H 18.138 24.326 33.474
N 20.731 17.649 32.008
C 19.622 18.364 32.473
C 18.564 17.427 32.984
C 19.115 16.179 32.833
C 20.45  16.318 32.181
C 17.212 17.876 33.499
H 16.769 17.176 34.207
H 17.353 18.831 33.995
H 16.43  17.988 32.681
C 18.38  14.879 33.009
H 19.053 14.045 33.193
H 17.689 15.023 33.879
C 17.604 14.524 31.77 
H 18.126 14.865 30.892
H 17.489 13.441 31.693
H 16.629 14.911 31.825
N 23.146 16.572 30.952
C 22.551 15.349 31.147
C 23.398 14.326 30.601
C 24.523 14.956 30.087
C 24.313 16.341 30.319
C 23.154 12.791 30.452
H 24.089 12.252 30.473
H 22.524 12.445 31.322
H 22.571 12.563 29.598
C 25.811 14.811 29.417
O 26.368 13.817 29.005
C 26.43  16.234 29.23 
H 26.629 16.227 28.207
C 27.734 16.398 30.017
O 27.75  16.386 31.214
O 28.864 16.371 29.281
C 30.187 16.313 29.957
H 30.213 15.357 30.552
H 30.969 16.346 29.16 
H 30.469 17.174 30.558
C 25.34  23.185 25.885
H 25.169 22.782 24.893
H 26.089 24.035 25.769
C 24.183 23.625 26.703
H 24.436 23.899 27.714
C 22.86  23.786 26.397
C 22.368 23.469 25.02 
H 21.995 22.447 24.957
H 21.635 24.171 24.652
H 23.124 23.496 24.255
C 21.738 24.144 27.398
H 22.131 23.958 28.401
H 20.795 23.515 27.265
C 21.272 25.583 27.303
H 21.933 26.21  26.779
H 21.138 26.033 28.321
C 19.902 25.778 26.607
H 19.708 25.033 25.933
H 20.003 26.654 25.919
C 18.72  25.824 27.584
H 19.044 26.421 28.454
C 18.403 24.531 28.286
H 18.21  23.842 27.456
H 19.149 24.046 28.916
H 17.508 24.536 28.866
C 17.485 26.54  26.86 
H 16.59  26.32  27.398
H 17.318 26.132 25.902
C 17.544 28.096 26.777
H 17.863 28.259 25.749
H 18.376 28.458 27.315
C 16.253 28.788 27.224
H 15.575 28.137 27.836
H 15.718 29.11  26.363
C 16.472 30.108 28.076
H 17.164 30.561 27.357
C 17.08  30.058 29.492
H 16.694 29.234 30.065
H 18.135 29.807 29.456
H 16.946 31.015 30.001
C 15.193 31.025 27.98 
H 14.704 30.777 28.922
H 14.457 30.72  27.109
C 15.557 32.548 28.015
H 16.636 32.806 27.943
H 15.262 32.911 28.926
C 14.846 33.395 26.906
H 13.942 32.819 26.55 
H 15.451 33.542 26.022
C 14.241 34.736 27.489
H 13.47  34.418 28.185
C 13.674 35.585 26.363
H 13.135 36.415 26.841
H 14.54  35.994 25.805
H 13.007 35.015 25.74 
C 15.262 35.711 28.159
H 16.129 35.961 27.648
H 14.827 36.641 28.452
H 15.615 35.421 29.183
