137

Mg 36.956 35.822 34.259
C 33.946 34.561 33.157
C 38.53  34.076 31.615
H 38.93  33.506 30.74 
C 39.855 36.882 35.302
H 40.696 37.404 35.636
C 35.211 37.397 36.847
H 34.719 37.956 37.671
N 36.278 34.555 32.521
C 34.99  34.124 32.327
C 34.887 33.353 30.94 
H 34.158 32.575 31.091
C 36.339 32.824 30.852
H 36.846 32.898 29.869
C 37.101 33.855 31.738
C 36.44  31.406 31.405
H 37.505 31.11  31.589
H 35.953 31.339 32.352
H 36.042 30.649 30.732
C 34.398 34.296 29.812
H 35.056 35.149 29.875
H 33.383 34.675 29.911
C 34.279 33.593 28.439
H 34.243 34.393 27.714
H 35.129 32.996 28.055
C 33.087 32.724 28.135
O 33.048 31.498 28.204
O 31.993 33.541 27.966
N 38.885 35.653 33.486
C 39.318 34.966 32.384
C 40.723 35.254 32.086
C 41.131 36.038 33.251
C 39.939 36.23  34.071
C 41.554 34.705 30.994
H 42.244 33.965 31.344
H 40.952 34.267 30.219
H 42.038 35.507 30.444
C 42.476 36.655 33.567
H 42.545 37.48  34.256
C 43.688 36.322 33.018
H 43.76  35.543 32.252
H 44.593 36.814 33.396
N 37.452 36.863 35.883
C 38.748 37.219 36.145
C 38.749 37.895 37.426
C 37.4   38.154 37.851
C 36.615 37.54  36.791
C 40.06  38.202 38.073
H 40.594 37.226 38.222
H 40.647 38.989 37.55 
H 39.878 38.503 39.127
C 36.854 39.065 38.977
H 36.162 38.429 39.583
H 37.677 39.358 39.594
C 36.111 40.328 38.547
H 36.684 40.967 37.865
H 35.126 40.208 38.236
H 36.05  40.886 39.473
N 34.968 35.955 34.954
C 34.395 36.583 36.036
C 32.951 36.305 36.041
C 32.74  35.509 34.95 
C 33.99  35.329 34.311
C 31.916 36.959 36.898
H 30.964 36.988 36.428
H 31.759 36.516 37.88 
H 32.091 38.023 37.087
C 31.704 34.838 34.248
O 30.501 34.763 34.424
C 32.502 34.125 33.076
H 31.996 34.439 32.216
C 32.338 32.717 33.142
O 32.745 31.984 34.02 
O 31.801 32.301 31.933
C 31.555 30.835 31.737
H 32.291 30.431 30.999
H 31.623 30.354 32.705
H 30.576 30.604 31.275
C 30.729 32.832 27.894
H 30.734 32.03  28.595
H 30.551 32.317 26.923
C 29.603 33.836 28.071
H 29.76  34.735 27.483
C 28.447 33.756 28.851
C 28.186 32.592 29.802
H 27.586 32.836 30.643
H 27.677 31.718 29.316
H 29.185 32.313 30.274
C 27.377 34.824 28.863
H 27.626 35.71  28.296
H 27.244 35.072 29.872
C 26.085 34.423 28.176
H 26.045 33.35  27.942
H 25.921 35.122 27.364
C 24.898 34.606 29.178
H 24.691 35.72  29.439
H 25.168 34.043 30.105
C 23.514 33.884 28.736
H 23.745 32.789 28.526
C 22.999 34.472 27.35 
H 22.651 35.503 27.421
H 23.746 34.4   26.544
H 22.224 33.836 26.907
C 22.347 33.787 29.83 
H 21.495 33.454 29.186
H 22.117 34.756 30.317
C 22.566 32.839 31.005
H 22.646 33.407 31.96 
H 23.44  32.34  30.712
C 21.461 31.736 31.047
H 22.026 30.83  31.392
H 21.047 31.521 30.063
C 20.226 31.973 32.051
H 19.642 32.816 31.675
C 20.751 32.324 33.507
H 21.452 31.518 33.781
H 21.291 33.302 33.664
H 19.89  32.312 34.162
C 19.318 30.685 31.982
H 19.98  29.889 32.267
H 19.052 30.539 30.936
C 18.053 30.66  32.809
H 17.223 30.442 32.134
H 17.977 31.647 33.06 
C 18.09  29.635 33.961
H 18.397 30.156 34.831
H 18.759 28.826 33.721
C 16.769 29.004 34.33 
H 16.337 28.681 33.416
C 15.719 29.999 34.983
H 14.664 29.669 34.92 
H 16.068 30.363 35.934
H 15.654 30.877 34.378
C 17.048 27.894 35.287
H 16.18  27.34  35.567
H 17.933 27.169 35.015
H 17.405 28.34  36.196
