137

Mg 22.319 17.157 26.696
C 23.201 17.708 23.429
C 24.583 19.585 27.731
H 25.308 20.417 28.022
C 20.954 16.951 29.755
H 20.645 16.925 30.767
C 19.781 15.064 25.453
H 19.229 14.183 25.125
N 23.701 18.393 25.689
C 23.886 18.515 24.35 
C 25.034 19.561 24.006
H 25.841 19.012 23.573
C 25.373 20.143 25.404
H 24.957 21.175 25.543
C 24.5   19.302 26.351
C 26.843 20.147 25.735
H 27.269 19.157 25.849
H 27.258 20.546 24.849
H 27.016 20.756 26.565
C 24.617 20.607 22.943
H 23.599 21.028 23.176
H 24.527 20.069 22.017
C 25.67  21.73  22.771
H 26.663 21.268 22.858
H 25.609 22.111 21.767
C 25.773 22.93  23.77 
O 26.757 23.616 24.041
O 24.537 23.189 24.444
N 22.835 17.975 28.498
C 23.82  18.922 28.713
C 23.752 19.222 30.142
C 22.736 18.549 30.72 
C 22.098 17.798 29.671
C 24.608 20.294 30.798
H 25.062 21.017 30.093
H 24.034 20.883 31.491
H 25.368 19.964 31.522
C 22.333 18.533 32.186
H 21.368 18.086 32.415
C 23.038 18.994 33.207
H 24.033 19.432 33.095
H 22.691 18.774 34.239
N 20.668 16.153 27.488
C 20.317 16.13  28.816
C 19.19  15.261 29.019
C 18.942 14.683 27.803
C 19.821 15.37  26.862
C 18.489 14.983 30.283
H 18.758 13.947 30.7  
H 18.731 15.711 31.064
H 17.379 14.928 30.157
C 17.884 13.719 27.497
H 18.291 12.984 26.83 
H 17.713 13.096 28.315
C 16.668 14.312 26.859
H 16.964 14.812 25.939
H 15.835 13.594 26.671
H 16.338 15.123 27.514
N 21.533 16.478 24.781
C 20.522 15.621 24.414
C 20.56  15.407 22.969
C 21.579 16.19  22.58 
C 22.209 16.749 23.68 
C 19.661 14.496 22.285
H 19.87  14.251 21.245
H 19.759 13.588 22.862
H 18.624 14.936 22.404
C 22.275 16.613 21.461
O 22.15  16.412 20.246
C 23.349 17.672 21.883
H 22.955 18.608 21.409
C 24.718 17.309 21.393
O 25.458 16.478 21.82 
O 25.089 18.266 20.391
C 26.526 18.16  19.986
H 26.672 19.088 19.489
H 27.336 18.093 20.779
H 26.686 17.261 19.324
C 24.547 24.371 25.317
H 24.929 25.222 24.822
H 25.202 24.11  26.081
C 23.125 24.513 25.741
H 22.823 23.6   26.229
C 22.241 25.55  25.728
C 22.475 26.91  25.053
H 21.667 27.672 25.308
H 23.381 27.365 25.397
H 22.446 26.658 23.966
C 20.817 25.431 26.252
H 20.521 24.396 26.497
H 20.196 25.715 25.412
C 20.617 26.371 27.497
H 21.549 26.783 27.864
H 20.322 25.758 28.312
C 19.558 27.487 27.216
H 18.715 27.349 27.911
H 19.205 27.433 26.194
C 20.045 28.95  27.492
H 20.943 29.139 26.917
C 20.623 29.158 28.938
H 21.018 30.186 28.984
H 19.915 28.887 29.747
H 21.469 28.513 29.074
C 19.137 30.074 27.131
H 19.668 30.982 27.507
H 18.265 30.169 27.748
C 18.712 30.221 25.653
H 17.673 30.114 25.582
H 19.154 29.406 25.027
C 18.901 31.639 25.029
H 19.199 31.472 23.941
H 19.709 32.129 25.546
C 17.627 32.633 25.161
H 16.762 32.226 24.713
C 17.929 33.938 24.29 
H 18.771 34.595 24.696
H 18.217 33.734 23.255
H 17.089 34.615 24.186
C 17.151 32.929 26.587
H 17.945 33.331 27.291
H 16.906 31.99  26.951
C 15.87  33.793 26.759
H 15.608 34.07  25.731
H 16.277 34.67  27.218
C 14.774 33.018 27.506
H 15.141 32.161 28.063
H 14.066 32.596 26.774
C 14.034 33.87  28.528
H 14.593 34.138 29.451
C 12.946 32.946 29.211
H 13.508 32.212 29.761
H 12.271 33.498 29.862
H 12.403 32.403 28.45 
C 13.336 35.103 27.87 
H 14.119 35.796 27.496
H 12.528 34.795 27.164
H 12.845 35.699 28.608
