137

Mg 21.134 19.936 32.081
C 24.317 19.308 30.733
C 22.37  22.921 33.25 
H 22.638 23.893 33.559
C 18.101 20.535 33.238
H 17.145 20.646 33.802
C 20.106 16.902 30.741
H 19.842 15.848 30.519
N 23.118 21.051 31.929
C 24.299 20.55  31.386
C 25.433 21.538 31.519
H 26.229 21.109 32.112
C 24.84  22.688 32.367
H 24.771 23.552 31.641
C 23.358 22.208 32.61 
C 25.646 23.284 33.544
H 26.544 23.685 33.135
H 24.999 24.068 33.981
H 25.821 22.482 34.35 
C 26.048 21.982 30.164
H 25.295 22.258 29.429
H 26.559 21.093 29.868
C 27.101 23.128 30.154
H 27.463 23.336 31.183
H 27.937 22.779 29.608
C 26.848 24.474 29.579
O 27.558 24.931 28.686
O 25.81  25.098 30.128
N 20.307 21.578 32.936
C 20.958 22.735 33.326
C 20.039 23.611 34.061
C 18.806 22.898 34.145
C 19.009 21.624 33.392
C 20.405 24.915 34.757
H 21.29  24.708 35.375
H 20.582 25.645 33.957
H 19.589 25.402 35.272
C 17.548 23.207 34.814
H 16.625 22.947 34.414
C 17.529 23.777 36.056
H 18.497 23.959 36.58 
H 16.602 23.98  36.628
N 19.383 18.985 31.983
C 18.234 19.348 32.56 
C 17.167 18.33  32.403
C 17.724 17.369 31.562
C 19.133 17.696 31.449
C 15.827 18.334 33.1  
H 15.813 18.774 34.104
H 15.085 18.778 32.41 
H 15.618 17.314 33.322
C 17.095 16.056 31.152
H 17.741 15.24  31.431
H 16.136 15.932 31.627
C 16.888 15.841 29.611
H 16.702 14.8   29.426
H 16.075 16.482 29.131
H 17.806 16.02  29.054
N 21.949 18.401 31.031
C 21.421 17.265 30.482
C 22.382 16.509 29.744
C 23.561 17.285 29.831
C 23.241 18.462 30.643
C 22.263 15.132 29.115
H 22.645 14.435 29.856
H 21.235 14.868 28.825
H 22.926 15.208 28.17 
C 24.968 17.305 29.528
O 25.67  16.544 28.9  
C 25.535 18.551 30.155
H 26.071 19.021 29.338
C 26.475 18.036 31.223
O 26.325 17.08  31.933
O 27.698 18.721 31.181
C 28.743 18.323 32.112
H 28.972 17.222 31.964
H 29.696 18.806 32.09 
H 28.422 18.344 33.134
C 25.538 26.476 29.602
H 25.509 26.476 28.49 
H 26.314 27.098 29.904
C 24.219 27.061 30.223
H 24.057 26.86  31.309
C 23.314 27.905 29.732
C 23.236 28.493 28.301
H 22.244 28.441 27.848
H 23.4   29.524 28.59 
H 24.034 28.182 27.578
C 22.233 28.451 30.664
H 22.316 27.994 31.629
H 21.193 28.21  30.29 
C 22.241 29.992 30.946
H 23.272 30.366 30.766
H 21.96  30.022 31.97 
C 21.209 30.746 30.086
H 20.96  30.248 29.141
H 21.76  31.741 29.82 
C 19.855 31.208 30.696
H 20.002 31.856 31.55 
C 18.932 30.048 31.206
H 18.386 29.54  30.358
H 19.487 29.266 31.777
H 18.199 30.479 31.891
C 19.075 32.097 29.703
H 18.093 32.041 30.046
H 18.903 31.617 28.737
C 19.579 33.522 29.504
H 19.946 33.388 28.484
H 20.396 33.636 30.226
C 18.564 34.599 29.47 
H 17.68  34.26  29.931
H 18.336 34.946 28.498
C 18.945 35.899 30.179
H 19.979 36.171 29.8  
C 18.941 35.667 31.71 
H 19.504 36.459 32.226
H 18.008 35.603 32.184
H 19.394 34.704 31.87 
C 18.015 37.082 29.828
H 16.997 36.861 30.249
H 17.835 37.202 28.738
C 18.5   38.448 30.418
H 18.413 39.212 29.667
H 19.508 38.616 30.616
C 17.701 38.97  31.619
H 18.259 38.599 32.458
H 16.641 38.616 31.694
C 17.62  40.493 31.77 
H 18.639 40.847 31.939
C 16.985 40.87  33.147
H 16.791 41.913 33.158
H 15.987 40.368 33.352
H 17.593 40.573 33.933
C 16.861 41.203 30.558
H 15.811 40.887 30.658
H 16.839 42.309 30.675
H 17.386 40.923 29.614
