137

Mg 34.597 33.628 34.829
C 31.653 32.425 33.573
C 36.335 31.538 32.739
H 36.93  30.917 32.112
C 37.507 34.887 36.099
H 38.431 35.312 36.502
C 32.852 35.909 36.713
H 32.136 36.496 37.3  
N 34.052 32.225 33.273
C 32.818 31.839 32.96 
C 32.8   30.665 31.966
H 32.249 29.797 32.316
C 34.287 30.365 31.717
H 34.686 30.596 30.759
C 34.974 31.473 32.598
C 34.665 28.829 32.047
H 35.686 28.699 31.875
H 34.556 28.616 33.066
H 34.124 28.145 31.363
C 31.984 31.038 30.714
H 32.178 32.075 30.383
H 30.926 30.965 31.024
C 32.116 30.049 29.514
H 32.607 30.529 28.71 
H 32.663 29.18  29.798
C 30.846 29.499 28.873
O 30.647 28.298 28.873
O 29.996 30.53  28.484
N 36.629 33.163 34.55 
C 37.124 32.251 33.698
C 38.513 32.    34.018
C 38.893 33.071 34.884
C 37.627 33.804 35.163
C 39.314 30.886 33.472
H 39.443 31.029 32.371
H 40.286 30.782 33.952
H 38.705 30.035 33.685
C 40.153 33.325 35.595
H 40.072 33.588 36.638
C 41.375 33.307 34.985
H 41.566 33.006 33.891
H 42.321 33.304 35.593
N 35.106 35.182 36.115
C 36.368 35.509 36.554
C 36.286 36.497 37.592
C 34.94  36.772 37.739
C 34.235 35.918 36.798
C 37.496 37.093 38.334
H 37.201 37.443 39.311
H 38.286 36.235 38.449
H 37.841 37.967 37.742
C 34.324 37.765 38.742
H 33.519 37.201 39.244
H 35.024 38.165 39.455
C 33.612 38.998 38.107
H 34.213 39.538 37.366
H 32.611 38.76  37.689
H 33.359 39.727 38.842
N 32.661 34.176 35.091
C 32.113 35.092 35.87 
C 30.668 35.015 35.864
C 30.41  33.935 34.963
C 31.646 33.413 34.595
C 29.646 35.749 36.633
H 29.604 36.775 36.195
H 28.66  35.292 36.521
H 29.916 35.769 37.722
C 29.388 33.163 34.361
O 28.164 33.197 34.356
C 30.139 32.182 33.42 
H 29.751 32.435 32.388
C 29.591 30.761 33.779
O 29.857 30.13  34.791
O 28.963 30.159 32.688
C 28.561 28.724 32.847
H 28.322 28.395 31.842
H 29.358 28.124 33.314
H 27.705 28.721 33.574
C 28.607 30.003 28.111
H 28.343 29.341 28.949
H 28.753 29.509 27.169
C 27.607 31.105 27.847
H 27.847 31.856 27.035
C 26.463 31.389 28.5  
C 26.088 30.696 29.761
H 25.911 31.311 30.612
H 25.004 30.421 29.64 
H 26.567 29.806 30.02 
C 25.664 32.623 28.057
H 26.329 33.192 27.429
H 25.69  33.216 28.97 
C 24.205 32.664 27.554
H 24.117 31.846 26.793
H 24.087 33.532 26.953
C 23.103 32.845 28.495
H 23.056 33.944 28.733
H 23.341 32.233 29.307
C 21.63  32.584 27.979
H 21.526 31.559 27.741
C 21.389 33.441 26.685
H 21.451 34.539 26.909
H 22.03  33.322 25.838
H 20.306 33.434 26.381
C 20.473 32.958 28.962
H 19.511 32.807 28.435
H 20.536 34.036 29.164
C 20.545 32.275 30.33 
H 20.287 33.016 31.186
H 21.567 31.857 30.589
C 19.495 31.166 30.408
H 20.073 30.214 30.374
H 18.878 31.172 29.573
C 18.625 31.025 31.602
H 18.109 31.976 31.748
C 19.389 30.853 32.979
H 19.508 29.792 33.137
H 20.317 31.457 33.114
H 18.684 31.087 33.747
C 17.459 29.946 31.515
H 17.846 28.943 31.443
H 16.961 30.234 30.553
C 16.484 29.912 32.64 
H 15.662 30.295 32.079
H 16.6   30.63  33.469
C 16.067 28.596 33.222
H 16.911 27.935 33.169
H 15.408 28.25  32.407
C 15.45  28.527 34.698
H 14.579 29.224 34.9  
C 16.543 28.782 35.786
H 16.094 28.712 36.739
H 17.381 28.001 35.649
H 17.071 29.696 35.571
C 14.779 27.136 34.799
H 14.505 26.928 35.885
H 13.839 27.077 34.145
H 15.556 26.409 34.462
