137

Mg 22.784 19.341 27.959
C 23.744 17.04  25.479
C 25.211 21.443 26.644
H 25.941 22.216 26.259
C 22.296 21.437 30.57 
H 22.014 22.107 31.352
C 20.764 16.864 29.401
H 20.011 16.244 29.945
N 24.303 19.275 26.298
C 24.581 18.198 25.499
C 25.498 18.53  24.372
H 26.213 17.711 24.344
C 26.074 19.897 24.904
H 25.829 20.712 24.106
C 25.134 20.228 26.011
C 27.506 19.804 25.245
H 28.054 19.653 24.353
H 27.844 20.796 25.594
H 27.637 19.097 26.099
C 24.737 18.755 23.068
H 23.802 19.272 23.235
H 24.442 17.743 22.728
C 25.513 19.433 21.934
H 26.474 19.791 22.168
H 25.575 18.696 21.18 
C 24.877 20.704 21.255
O 24.624 20.858 20.087
O 24.644 21.713 22.204
N 23.661 21.145 28.547
C 24.586 21.87  27.854
C 24.746 23.175 28.543
C 23.948 23.129 29.693
C 23.288 21.834 29.672
C 25.599 24.235 28.048
H 25.276 25.217 28.482
H 26.644 24.032 28.249
H 25.46  24.215 26.96 
C 23.692 24.156 30.693
H 22.774 23.984 31.281
C 24.53  25.114 31.097
H 25.613 25.096 30.738
H 24.362 25.742 31.97 
N 21.672 19.157 29.692
C 21.553 20.17  30.625
C 20.505 19.82  31.568
C 20.118 18.506 31.248
C 20.829 18.109 30.071
C 20.133 20.724 32.783
H 19.354 21.413 32.477
H 19.689 20.142 33.614
H 21.036 21.247 33.105
C 19.153 17.627 32.044
H 19.791 16.78  32.385
H 18.69  18.134 32.881
C 17.857 17.319 31.279
H 18.061 16.635 30.442
H 17.254 16.755 31.938
H 17.328 18.238 30.954
N 22.299 17.35  27.556
C 21.422 16.464 28.194
C 21.31  15.248 27.382
C 22.144 15.463 26.314
C 22.766 16.683 26.464
C 20.309 14.118 27.467
H 20.49  13.479 28.351
H 19.382 14.488 27.74 
H 20.322 13.574 26.511
C 22.644 14.82  25.136
O 22.434 13.763 24.608
C 23.684 15.748 24.611
H 23.388 15.885 23.607
C 24.887 15.028 24.67 
O 25.38  14.524 25.659
O 25.46  14.983 23.4  
C 26.736 14.235 23.361
H 27.261 14.249 24.358
H 26.56 13.26 22.99
H 27.421 14.655 22.684
C 24.062 22.994 21.717
H 23.172 22.845 21.143
H 24.799 23.476 21.081
C 23.819 23.87  22.909
H 24.729 23.93  23.583
C 22.867 24.777 23.214
C 21.571 25.119 22.383
H 21.557 24.468 21.485
H 20.595 25.021 22.957
H 21.767 26.098 22.02 
C 22.931 25.415 24.546
H 23.59  25.008 25.256
H 21.96  25.187 25.014
C 23.062 26.945 24.611
H 22.187 27.366 24.294
H 24.011 27.175 24.018
C 23.319 27.425 26.035
H 23.427 26.596 26.751
H 22.392 27.906 26.415
C 24.478 28.388 26.306
H 24.42  29.336 25.723
C 25.83  27.803 25.977
H 25.829 26.752 26.413
H 26.046 27.787 24.869
H 26.595 28.382 26.432
C 24.449 28.847 27.789
H 25.368 29.398 27.95 
H 24.397 27.926 28.475
C 23.314 29.814 28.063
H 22.881 30.271 27.168
H 23.654 30.629 28.672
C 22.119 29.229 28.873
H 22.38  29.472 29.931
H 22.169 28.174 28.817
C 20.729 29.798 28.641
H 20.384 29.497 27.68 
C 20.763 31.366 28.863
H 21.675 31.875 28.457
H 19.908 31.871 28.363
H 20.691 31.35  29.94 
C 19.51  29.181 29.389
H 19.844 29.009 30.417
H 19.352 28.19  28.968
C 18.241 30.012 29.473
H 18.004 30.472 28.492
H 18.451 30.863 30.183
C 17.095 29.04  29.911
H 17.542 28.148 30.397
H 16.651 28.635 29.008
C 16.096 29.823 30.84 
H 16.454 30.149 31.885
C 15.01  28.841 31.245
H 14.449 29.255 32.108
H 14.498 28.797 30.36 
H 15.431 27.927 31.595
C 15.492 31.11  30.193
H 14.961 30.966 29.211
H 14.832 31.606 30.881
H 16.261 31.831 30.071
