137

Mg 24.502 32.132 30.681
C 23.861 28.767 30.408
C 21.118 32.715 31.018
H 20.105 32.912 31.23 
C 25.055 35.52  30.85 
H 25.067 36.616 30.917
C 27.786 31.564 30.105
H 28.805 31.432 29.883
N 22.706 30.858 30.642
C 22.653 29.474 30.578
C 21.206 29.035 30.606
H 21.128 28.552 29.657
C 20.364 30.372 30.715
H 19.768 30.443 31.592
C 21.473 31.405 30.792
C 19.381 30.572 29.488
H 18.76  31.513 29.691
H 20.022 30.655 28.589
H 18.7   29.754 29.349
C 20.863 28.007 31.778
H 21.361 28.536 32.659
H 21.426 27.12  31.555
C 19.388 27.729 31.932
H 18.862 27.858 30.972
H 19.207 26.664 32.198
C 18.723 28.417 33.074
O 19.12  28.456 34.244
O 17.896 29.367 32.637
N 23.317 33.843 30.992
C 21.927 33.859 31.173
C 21.384 35.201 31.255
C 22.563 36.056 31.274
C 23.696 35.155 31.045
C 19.881 35.567 31.128
H 19.62  36.61  31.327
H 19.557 35.412 30.113
H 19.179 35.014 31.786
C 22.698 37.533 31.398
H 23.608 38.067 31.049
C 21.664 38.265 31.973
H 20.734 37.917 32.385
H 21.781 39.372 32.022
N 26.163 33.356 30.425
C 26.178 34.714 30.581
C 27.554 35.177 30.273
C 28.364 34.076 30.067
C 27.452 32.907 30.239
C 27.943 36.63  30.076
H 27.951 36.91  28.998
H 27.365 37.425 30.57 
H 28.961 36.732 30.42 
C 29.793 34.073 29.639
H 29.872 33.425 28.803
H 30.009 35.08  29.339
C 30.793 33.683 30.653
H 31.698 33.462 30.102
H 30.923 34.575 31.349
H 30.629 32.807 31.259
N 25.599 30.557 30.263
C 26.99  30.416 30.13 
C 27.402 29.058 30.027
C 26.186 28.348 30.075
C 25.127 29.312 30.195
C 28.718 28.426 29.745
H 29.45  29.035 30.248
H 28.63  27.437 30.186
H 28.984 28.206 28.727
C 25.551 27.027 30.144
O 26.044 25.952 30.106
C 24.017 27.236 30.329
H 23.86  26.729 31.247
C 23.332 26.548 29.193
O 23.194 26.981 28.076
O 23.059 25.251 29.605
C 22.4   24.507 28.492
H 22.497 23.453 28.709
H 21.318 24.736 28.381
H 22.812 24.663 27.514
C 17.32  30.091 33.663
H 18.061 30.809 33.991
H 16.902 29.483 34.504
C 16.076 30.807 33.167
H 15.128 30.283 33.136
C 16.021 32.078 32.596
C 17.162 32.909 32.196
H 17.222 33.879 32.82 
H 18.108 32.367 32.259
H 17.023 33.206 31.123
C 14.673 32.612 32.181
H 13.894 31.814 32.346
H 14.763 32.97  31.179
C 14.11  33.757 33.077
H 14.715 33.942 34.002
H 13.247 33.266 33.459
C 13.756 35.088 32.33 
H 12.753 35.005 32.078
H 14.358 35.07  31.424
C 13.866 36.402 33.117
H 13.347 36.224 34.03 
C 13.187 37.61  32.327
H 13.395 38.575 32.813
H 13.565 37.573 31.262
H 12.14  37.359 32.363
C 15.306 36.733 33.486
H 15.841 35.898 33.905
H 15.317 37.512 34.283
C 16.313 37.058 32.405
H 16.174 36.36  31.62 
H 17.314 36.834 32.828
C 16.336 38.593 32.054
H 17.343 38.957 32.325
H 15.529 39.14  32.585
C 16.168 38.828 30.474
H 15.135 38.62  30.125
C 17.155 38.068 29.502
H 18.104 37.848 29.989
H 16.608 37.111 29.384
H 17.392 38.599 28.57 
C 16.377 40.292 30.151
H 16.194 40.42  29.078
H 17.306 40.772 30.359
C 15.279 41.266 30.703
H 14.388 40.677 31.035
H 14.832 41.91  29.942
C 15.745 41.905 32.08 
H 16.779 41.613 32.252
H 15.112 41.352 32.801
C 15.606 43.431 32.256
H 14.625 43.763 31.883
C 16.558 44.296 31.374
H 17.614 43.977 31.683
H 16.511 44.095 30.354
H 16.421 45.338 31.544
C 15.611 43.815 33.772
H 15.152 44.785 33.998
H 15.11  43.115 34.458
H 16.603 43.902 34.103
