137

Mg 35.528 31.417 35.782
C 32.142 31.42  35.303
C 35.742 29.208 33.185
H 35.833 28.573 32.331
C 38.932 31.594 36.073
H 39.982 31.52  36.127
C 35.286 34.063 37.977
H 35.337 34.875 38.667
N 34.111 30.34  34.49 
C 32.751 30.549 34.388
C 32.152 29.801 33.186
H 31.363 29.132 33.652
C 33.302 28.84  32.83 
H 33.488 28.776 31.773
C 34.468 29.512 33.539
C 33.164 27.387 33.321
H 32.462 26.923 32.646
H 34.115 26.868 33.101
H 32.945 27.448 34.36 
C 31.53  30.721 32.063
H 32.373 30.805 31.346
H 31.163 31.727 32.486
C 30.342 30.139 31.246
H 30.715 29.906 30.203
H 29.997 29.193 31.622
C 29.124 30.967 30.943
O 28.869 31.496 29.901
O 28.272 30.961 32.099
N 37.055 30.412 34.913
C 36.998 29.555 33.8  
C 38.218 29.131 33.419
C 39.154 29.834 34.28 
C 38.407 30.637 35.165
C 38.385 28.075 32.371
H 39.429 27.92  32.064
H 37.998 27.145 32.803
H 37.821 28.338 31.483
C 40.657 29.621 34.301
H 41.069 29.499 35.277
C 41.53  29.549 33.263
H 41.321 29.596 32.191
H 42.649 29.403 33.576
N 36.851 32.566 36.941
C 38.217 32.507 36.886
C 38.794 33.46  37.817
C 37.766 34.226 38.325
C 36.57  33.567 37.758
C 40.255 33.697 37.942
H 40.668 33.943 36.993
H 40.473 34.58  38.688
H 40.752 32.686 38.271
C 37.879 35.456 39.233
H 37.202 35.344 40.031
H 38.935 35.475 39.627
C 37.729 36.728 38.484
H 37.026 36.699 37.715
H 37.727 37.594 39.18 
H 38.579 36.841 37.865
N 34.142 32.588 36.441
C 34.084 33.627 37.369
C 32.695 33.983 37.659
C 31.908 33.189 36.834
C 32.823 32.313 36.117
C 32.218 34.98  38.662
H 31.121 34.828 38.537
H 32.597 34.543 39.651
H 32.616 35.913 38.371
C 30.525 32.899 36.469
O 29.468 33.398 36.81 
C 30.606 31.8   35.41 
H 30.218 32.105 34.464
C 29.833 30.576 35.856
O 29.926 29.993 36.928
O 28.905 30.219 34.839
C 28.147 28.989 35.056
H 27.652 28.974 36.027
H 27.34  28.915 34.359
H 28.841 28.227 34.892
C 26.871 31.527 31.897
H 26.374 31.001 31.066
H 26.858 32.597 31.539
C 26.167 31.431 33.243
H 26.715 31.779 34.068
C 24.863 31.094 33.466
C 24.006 30.504 32.35 
H 24.514 29.843 31.701
H 23.108 30.053 32.772
H 23.73  31.3   31.638
C 24.23  31.289 34.882
H 25.049 31.725 35.455
H 23.864 30.407 35.224
C 23.131 32.401 34.909
H 23.055 32.817 33.946
H 23.561 33.243 35.573
C 21.773 31.953 35.385
H 21.72  32.142 36.456
H 21.725 30.867 35.409
C 20.505 32.454 34.609
H 20.485 32.126 33.54 
C 20.478 34.048 34.63 
H 20.602 34.27  35.691
H 21.19  34.625 34.055
H 19.525 34.414 34.422
C 19.186 31.974 35.185
H 18.313 32.566 34.895
H 19.284 31.937 36.246
C 18.874 30.446 34.888
H 19.229 29.927 35.734
H 19.444 30.064 34.004
C 17.366 30.016 34.731
H 17.325 28.925 34.67 
H 17.13  30.399 33.782
C 16.434 30.499 35.873
H 16.358 31.561 35.766
C 16.965 30.188 37.299
H 17.198 29.116 37.404
H 17.852 30.804 37.528
H 16.319 30.411 38.17 
C 15.004 29.971 35.67 
H 14.49  30.323 36.561
H 15.064 28.897 35.591
C 14.185 30.576 34.462
H 14.569 31.49  34.041
H 13.177 30.822 34.901
C 13.98  29.536 33.364
H 14.816 28.884 33.489
H 14.146 29.97  32.405
C 12.669 28.693 33.419
H 11.845 29.32  33.695
C 12.673 27.513 34.358
H 11.685 26.907 34.429
H 13.583 26.914 34.127
H 12.943 28.056 35.296
C 12.294 28.172 31.992
H 11.518 27.43  31.995
H 11.962 29.057 31.412
H 13.211 27.87  31.449
