137

Mg 22.091 17.708 30.969
C 25.145 16.247 29.998
C 23.639 20.872 30.733
H 24.083 21.836 30.952
C 19.162 19.125 31.606
H 18.213 19.584 31.756
C 20.64  14.616 31.176
H 20.195 13.644 31.306
N 24.1   18.432 30.368
C 25.189 17.643 30.017
C 26.416 18.531 29.711
H 27.288 18.163 30.223
C 25.982 19.95  30.133
H 26.018 20.722 29.329
C 24.462 19.748 30.408
C 26.864 20.6   31.262
H 27.905 20.404 30.96 
H 26.766 21.696 31.359
H 26.649 20.181 32.269
C 26.751 18.572 28.204
H 25.785 18.665 27.689
H 27.018 17.613 27.907
C 27.772 19.578 27.669
H 28.123 20.092 28.559
H 28.678 19.082 27.411
C 27.384 20.482 26.52 
O 27.772 20.322 25.373
O 26.414 21.407 26.892
N 21.497 19.598 31.126
C 22.233 20.733 30.984
C 21.329 21.903 31.181
C 20.128 21.392 31.692
C 20.209 19.974 31.449
C 21.735 23.324 30.986
H 22.327 23.387 30.076
H 20.873 23.969 30.64 
H 22.233 23.729 31.831
C 19.027 22.104 32.351
H 18.065 21.617 32.501
C 19.006 23.359 32.909
H 19.95  23.913 32.926
H 18.066 23.797 33.369
N 20.156 16.92  31.377
C 19.081 17.728 31.614
C 17.87  16.858 31.9  
C 18.392 15.555 31.676
C 19.79  15.621 31.382
C 16.499 17.421 32.172
H 15.677 16.975 31.581
H 16.349 17.191 33.226
H 16.472 18.509 32.064
C 17.643 14.235 31.757
H 17.806 13.692 30.769
H 18.254 13.583 32.436
C 16.15  14.261 32.3  
H 15.688 13.3   32.438
H 16.088 14.651 33.29 
H 15.545 14.83  31.646
N 22.7   15.922 30.65 
C 21.981 14.719 30.828
C 22.901 13.639 30.551
C 24.141 14.166 30.237
C 23.967 15.525 30.275
C 22.433 12.156 30.385
H 21.943 11.708 31.226
H 21.868 12.223 29.498
H 23.416 11.652 30.258
C 25.49  13.877 29.725
O 26.116 12.821 29.418
C 26.216 15.259 29.721
H 26.733 15.436 28.802
C 27.18  15.243 30.822
O 26.851 15.04  31.992
O 28.505 15.483 30.415
C 29.47  15.453 31.494
H 29.319 14.622 32.205
H 30.404 15.274 31.021
H 29.604 16.468 31.928
C 25.924 22.322 25.844
H 25.603 21.644 25.08 
H 26.712 22.777 25.362
C 24.856 23.142 26.56 
H 25.138 23.625 27.52 
C 23.632 23.458 26.082
C 23.008 22.948 24.818
H 23.648 22.078 24.446
H 22.046 22.576 25.208
H 22.948 23.772 24.091
C 22.783 24.444 26.904
H 23.329 24.652 27.836
H 21.765 24.197 27.118
C 22.648 25.759 26.188
H 23.357 25.799 25.318
H 22.844 26.53  26.951
C 21.348 26.115 25.461
H 20.755 25.198 25.277
H 21.573 26.561 24.441
C 20.342 27.073 26.121
H 20.974 27.923 26.435
C 19.645 26.468 27.402
H 19.183 25.499 27.249
H 20.441 26.258 28.21 
H 18.884 27.156 27.785
C 19.262 27.721 25.145
H 18.286 27.187 25.393
H 19.484 27.21  24.206
C 19.298 29.31  25.11 
H 19.581 29.745 24.134
H 20.151 29.754 25.71 
C 17.969 29.827 25.646
H 17.296 29.049 26.042
H 17.537 30.269 24.734
C 17.912 30.979 26.741
H 18.358 31.894 26.385
C 18.677 30.531 28.041
H 18.316 29.552 28.386
H 19.709 30.473 27.863
H 18.394 31.311 28.794
C 16.399 31.37  27.079
H 16.239 30.712 27.859
H 15.694 31.147 26.271
C 16.102 32.809 27.604
H 16.669 32.852 28.545
H 15.08  32.839 27.817
C 16.273 33.889 26.598
H 16.221 33.504 25.523
H 17.288 34.297 26.781
C 15.278 35.055 26.713
H 14.199 34.8   26.616
C 15.537 36.201 25.73 
H 14.698 36.835 25.787
H 16.532 36.669 25.898
H 15.546 35.752 24.772
C 15.286 35.669 28.168
H 16.229 36.132 28.147
H 14.466 36.384 28.239
H 14.994 35.013 28.975
