137

Mg 28.068 32.273 38.237
C 25.507 30.789 39.884
C 25.79  34.098 36.451
H 25.068 34.766 35.949
C 30.537 33.864 36.518
H 31.319 34.36  35.975
C 30.272 30.571 40.114
H 30.918 29.966 40.696
N 25.964 32.425 38.191
C 25.09  31.726 38.963
C 23.626 32.324 38.782
H 22.909 31.542 38.51 
C 23.771 33.349 37.645
H 23.509 34.296 38.058
C 25.289 33.292 37.406
C 22.907 33.02  36.474
H 21.872 32.935 36.769
H 23.07  33.836 35.837
H 23.069 32.108 35.929
C 23.054 32.929 40.179
H 23.768 33.707 40.611
H 23.006 32.107 40.899
C 21.667 33.649 40.08 
H 21.098 33.321 39.188
H 21.132 33.529 41.023
C 21.677 35.145 39.95 
O 22.023 35.907 40.792
O 21.28  35.566 38.742
N 28.188 33.626 36.655
C 27.104 34.295 36.054
C 27.554 35.19  35.019
C 28.922 34.988 34.895
C 29.27  34.116 36.036
C 26.743 36.044 34.097
H 25.827 36.408 34.621
H 27.213 37.014 33.77 
H 26.425 35.408 33.272
C 29.94  35.387 33.834
H 29.908 36.457 33.532
C 30.883 34.57  33.338
H 30.8   33.411 33.504
H 31.724 34.833 32.567
N 30.06  32.347 38.375
C 30.9   33.049 37.534
C 32.308 32.73  37.893
C 32.251 31.755 38.914
C 30.854 31.494 39.169
C 33.576 33.194 37.203
H 34.131 33.771 37.929
H 34.169 32.28  36.977
H 33.374 33.598 36.203
C 33.418 31.004 39.504
H 33.076 30.033 39.847
H 34.32  30.894 38.858
C 33.925 31.743 40.752
H 34.332 32.75  40.505
H 33.114 31.597 41.484
H 34.665 31.096 41.192
N 27.945 31.041 39.712
C 28.878 30.336 40.402
C 28.298 29.331 41.335
C 26.95  29.453 41.112
C 26.829 30.508 40.177
C 28.951 28.327 42.254
H 28.998 27.402 41.663
H 29.954 28.637 42.547
H 28.313 28.206 43.062
C 25.651 28.919 41.49 
O 25.359 27.925 42.185
C 24.567 29.849 40.839
H 24.244 30.326 41.729
C 23.576 29.058 40.15 
O 23.681 28.422 39.106
O 22.494 28.87  40.966
C 21.573 27.821 40.592
H 20.702 27.761 41.22 
H 21.199 28.126 39.584
H 21.968 26.833 40.472
C 21.385 36.901 38.395
H 22.482 37.042 38.252
H 20.993 37.506 39.224
C 20.529 37.145 37.141
H 19.515 37.059 37.406
C 21.007 37.34  35.872
C 22.463 37.514 35.508
H 22.757 38.503 35.944
H 23.175 36.907 36.091
H 22.666 37.44  34.43 
C 19.95  37.508 34.813
H 19.005 37.014 34.997
H 20.297 37.172 33.831
C 19.783 39.028 34.607
H 20.246 39.178 33.626
H 20.376 39.642 35.206
C 18.356 39.535 34.591
H 18.347 40.359 35.216
H 17.781 38.824 35.121
C 17.886 39.885 33.162
H 18.666 40.552 32.8  
C 16.542 40.643 33.202
H 16.676 41.62  33.754
H 16.295 40.847 32.178
H 15.673 39.997 33.548
C 17.828 38.713 32.096
H 18.843 38.553 31.875
H 17.48  39.147 31.168
C 16.994 37.418 32.46 
H 15.909 37.591 32.294
H 17.212 37.355 33.522
C 17.486 36.155 31.745
H 17.668 35.467 32.557
H 18.448 36.301 31.248
C 16.339 35.504 30.89 
H 15.396 35.669 31.378
C 16.525 33.968 30.881
H 15.671 33.602 30.312
H 17.483 33.744 30.375
H 16.514 33.711 31.946
C 16.424 36.237 29.516
H 17.425 36.209 29.129
H 16.06  37.266 29.766
C 15.466 35.629 28.477
H 15.142 36.421 27.816
H 14.607 35.23  28.979
C 16.157 34.572 27.544
H 16.875 34.08  28.19 
H 16.681 35.136 26.842
C 15.141 33.489 26.93 
H 14.365 33.319 27.699
C 15.848 32.183 26.601
H 15.084 31.487 26.265
H 16.573 32.197 25.818
H 16.353 31.733 27.461
C 14.452 34.16  25.741
H 15.186 34.08  24.998
H 13.649 33.527 25.394
H 14.157 35.189 25.996
