137

Mg 28.751 29.439 36.207
C 27.356 28.403 39.147
C 25.723 28.864 34.726
H 24.742 28.676 34.2  
C 30.075 30.539 33.27 
H 30.485 30.839 32.301
C 31.505 30.66  37.887
H 32.3   30.994 38.486
N 26.779 28.837 36.859
C 26.447 28.466 38.09 
C 24.981 28.021 38.211
H 24.996 27.028 38.675
C 24.504 27.979 36.791
H 23.693 28.648 36.573
C 25.746 28.638 36.074
C 24.094 26.574 36.323
H 24.218 26.482 35.238
H 24.755 25.79  36.779
H 23.01  26.479 36.513
C 24.054 28.86  39.121
H 23.996 29.928 38.79 
H 24.503 28.788 40.113
C 22.594 28.373 39.221
H 22.435 27.36  38.886
H 22.204 28.345 40.304
C 21.6   29.217 38.354
O 21.225 30.26  38.82 
O 21.388 28.789 37.091
N 27.994 29.619 34.27 
C 26.722 29.333 33.91 
C 26.65  29.536 32.456
C 27.86  30.058 31.976
C 28.751 30.011 33.164
C 25.468 29.12  31.655
H 24.764 29.991 31.522
H 25.804 28.774 30.736
H 24.956 28.29  32.139
C 28.362 30.354 30.581
H 29.421 30.4   30.485
C 27.563 30.508 29.529
H 26.433 30.508 29.626
H 27.973 30.789 28.561
N 30.529 30.452 35.631
C 30.937 30.796 34.345
C 32.171 31.424 34.377
C 32.558 31.609 35.703
C 31.562 30.902 36.483
C 32.845 32.032 33.133
H 32.974 31.186 32.449
H 32.17  32.778 32.75 
H 33.81  32.398 33.445
C 33.802 32.272 36.177
H 34.135 31.759 37.073
H 34.649 32.18  35.466
C 33.615 33.738 36.656
H 33.159 33.652 37.674
H 34.56  34.236 36.747
H 32.969 34.409 36.035
N 29.329 29.546 38.078
C 30.532 29.97  38.594
C 30.557 29.706 40.017
C 29.324 29.086 40.288
C 28.634 28.955 39.064
C 31.709 30.078 40.965
H 32.074 31.101 40.989
H 31.338 29.771 41.982
H 32.572 29.526 40.816
C 28.52  28.587 41.3  
O 28.678 28.593 42.461
C 27.197 27.975 40.59 
H 26.349 28.351 41.024
C 27.292 26.477 40.693
O 28.254 25.764 40.433
O 26.026 25.93  41.016
C 25.806 24.481 41.112
H 24.77  24.394 41.512
H 25.931 23.939 40.15 
H 26.547 24.023 41.717
C 20.842 29.762 36.121
H 21.449 30.649 36.225
H 19.831 29.869 36.295
C 21.007 28.872 34.798
H 21.912 28.294 34.827
C 20.263 28.912 33.66 
C 19.026 29.922 33.481
H 18.077 29.343 33.385
H 18.921 30.582 34.279
H 19.299 30.543 32.655
C 20.735 28.264 32.319
H 21.784 27.855 32.563
H 20.794 29.064 31.547
C 20.003 26.994 31.751
H 19.006 26.977 32.199
H 20.554 26.16  32.092
C 19.876 26.924 30.275
H 20.667 27.313 29.72 
H 18.99  27.471 30.009
C 19.373 25.515 29.715
H 20.251 24.784 29.812
C 19.235 25.608 28.128
H 20.155 26.146 27.765
H 18.976 24.689 27.517
H 18.44  26.348 28.127
C 18.119 24.791 30.486
H 18.315 24.794 31.552
H 18.078 23.711 30.28 
C 16.685 25.482 30.41 
H 16.776 26.58  30.332
H 16.234 25.38  31.416
C 15.79  24.86  29.332
H 14.955 24.358 29.861
H 16.376 24.233 28.673
C 15.04  25.827 28.355
H 15.859 26.511 27.924
C 14.088 26.812 29.133
H 13.276 26.242 29.554
H 14.665 27.367 29.903
H 13.57  27.559 28.494
C 14.331 25.169 27.199
H 13.554 24.489 27.584
H 15.082 24.54  26.788
C 13.869 25.994 25.987
H 14.435 25.618 25.135
H 14.146 27.045 26.171
C 12.392 25.839 25.779
H 11.811 25.711 26.693
H 12.274 24.957 25.144
C 11.674 26.88  24.957
H 11.491 27.75  25.589
C 10.281 26.317 24.536
H  9.621 25.902 25.333
H  9.864 27.1   23.879
H 10.438 25.43  23.941
C 12.486 27.361 23.755
H 11.865 27.931 23.056
H 13.303 28.044 24.019
H 12.848 26.42  23.211
