137

Mg 37.52  34.562 34.822
C 34.269 35.317 35.478
C 36.463 31.357 34.043
H 36.19  30.311 33.81 
C 40.655 33.707 34.338
H 41.654 33.345 34.134
C 38.49  37.684 36.04 
H 38.867 38.701 36.338
N 35.612 33.538 34.693
C 34.393 34.025 34.932
C 33.272 33.034 34.837
H 32.825 32.99  35.829
C 34.035 31.724 34.559
H 33.669 31.364 33.594
C 35.476 32.207 34.432
C 33.695 30.492 35.509
H 34.088 30.597 36.525
H 32.641 30.624 35.572
H 34.129 29.594 35.045
C 32.3   33.327 33.695
H 32.783 33.104 32.763
H 32.087 34.409 33.693
C 30.941 32.641 33.73 
H 30.866 31.743 33.104
H 30.723 32.185 34.676
C 29.574 33.375 33.54 
O 29.532 34.597 33.3  
O 28.528 32.508 33.637
N 38.379 32.928 34.076
C 37.837 31.678 33.793
C 38.849 30.82  33.232
C 40.078 31.447 33.353
C 39.712 32.787 33.956
C 38.455 29.451 32.648
H 37.634 29.688 31.977
H 39.286 29.055 32.01 
H 38.19  28.687 33.354
C 41.449 30.961 32.981
H 42.258 31.78  32.666
C 41.797 29.696 32.835
H 41.166 28.825 33.095
H 42.825 29.462 32.522
N 39.295 35.536 35.183
C 40.521 34.982 34.878
C 41.555 35.969 35.17 
C 40.913 37.043 35.733
C 39.502 36.796 35.694
C 43.038 35.708 34.958
H 43.57  36.609 34.595
H 43.421 35.488 35.914
H 43.19  34.786 34.273
C 41.625 38.316 36.192
H 41.162 38.866 36.997
H 42.691 37.988 36.486
C 41.848 39.397 35.036
H 42.144 40.312 35.562
H 42.744 39.12  34.35 
H 40.947 39.709 34.53 
N 36.612 36.199 35.585
C 37.124 37.424 36.064
C 36.019 38.215 36.559
C 34.872 37.375 36.365
C 35.277 36.246 35.731
C 36.034 39.627 37.124
H 35.636 39.577 38.115
H 36.952 40.16  37.079
H 35.397 40.196 36.491
C 33.445 37.254 36.653
O 32.706 38.01  37.204
C 33.039 35.962 36.075
H 32.234 36.151 35.383
C 32.357 35.229 37.225
O 32.859 34.945 38.308
O 31.145 34.729 36.798
C 30.478 33.804 37.709
H 31.017 32.819 37.718
H 30.502 34.219 38.701
H 29.408 33.575 37.378
C 27.261 33.262 33.35 
H 27.432 34.006 32.547
H 26.845 33.876 34.203
C 26.168 32.287 32.902
H 25.565 31.778 33.616
C 25.748 32.115 31.655
C 26.422 32.768 30.456
H 27.522 33.039 30.54 
H 26.259 32.082 29.601
H 25.772 33.628 30.179
C 24.78  31.067 31.242
H 24.427 30.478 32.095
H 25.249 30.246 30.658
C 23.645 31.572 30.313
H 23.618 31.001 29.401
H 23.825 32.528 29.871
C 22.259 31.656 30.915
H 22.27  31.277 31.915
H 21.566 30.972 30.318
C 21.566 33.025 30.926
H 21.619 33.367 29.863
C 22.228 34.049 31.827
H 21.615 34.955 31.773
H 22.412 33.783 32.856
H 23.207 34.357 31.487
C 19.975 32.942 31.299
H 19.318 32.387 30.558
H 19.562 33.932 31.125
C 19.534 32.655 32.714
H 19.101 33.575 33.174
H 20.444 32.362 33.291
C 18.422 31.592 32.833
H 19.041 30.903 33.274
H 18.056 31.383 31.854
C 17.227 31.982 33.821
H 16.653 32.767 33.273
C 17.552 32.8   35.174
H 18.47  32.529 35.626
H 17.62  33.887 34.935
H 16.731 32.726 35.866
C 16.26  30.806 34.112
H 15.61  31.043 34.953
H 16.886 29.953 34.358
C 15.324 30.593 32.888
H 15.612 31.349 32.179
H 14.304 30.709 33.128
C 15.615 29.234 32.179
H 14.739 28.601 32.379
H 16.478 28.631 32.516
C 15.832 29.225 30.657
H 16.782 29.709 30.398
C 14.72  29.908 29.76 
H 14.98  29.573 28.765
H 13.733 29.672 30.051
H 14.833 31.018 29.851
C 15.904 27.671 30.218
H 16.231 27.659 29.167
H 16.649 27.143 30.804
H 14.926 27.216 30.289
