137

Mg 32.545 32.052 35.146
C 30.871 29.778 33.093
C 35.224 31.973 32.981
H 36.027 32.159 32.187
C 34.363 34.015 37.338
H 34.924 34.766 37.877
C 29.965 31.792 37.501
H 29.17  31.677 38.262
N 32.922 30.995 33.252
C 32.131 30.17  32.545
C 32.764 29.731 31.198
H 32.777 28.569 31.228
C 34.208 30.21  31.393
H 34.603 30.692 30.542
C 34.129 31.186 32.592
C 35.173 29.02  31.666
H 34.72  28.186 32.091
H 35.564 28.823 30.597
H 36.067 29.147 32.283
C 32.004 30.232 29.986
H 31.884 31.287 30.155
H 30.938 29.81  29.989
C 32.574 29.929 28.528
H 32.89  30.918 28.053
H 33.601 29.418 28.543
C 31.807 29.197 27.446
O 31.784 29.518 26.297
O 31.271 28.101 27.928
N 34.506 32.782 35.193
C 35.334 32.785 34.156
C 36.492 33.636 34.499
C 36.305 34.125 35.743
C 35.008 33.61  36.143
C 37.711 33.955 33.547
H 38.656 34.061 34.055
H 37.83  33.269 32.742
H 37.474 34.896 33.098
C 37.111 34.895 36.659
H 36.932 34.862 37.687
C 38.175 35.653 36.273
H 38.458 35.841 35.224
H 38.684 36.319 37.041
N 32.249 32.76  37.073
C 33.122 33.572 37.823
C 32.471 34.048 39.059
C 31.175 33.47  39.015
C 31.095 32.596 37.801
C 33.05  34.857 40.187
H 33.379 34.24  40.997
H 33.835 35.54  39.832
H 32.25  35.459 40.654
C 30.087 33.634 40.107
H 29.688 32.696 40.435
H 30.491 34.078 40.948
C 28.941 34.603 39.733
H 28.285 34.632 40.625
H 29.282 35.617 39.461
H 28.438 34.252 38.872
N 30.763 31.077 35.302
C 29.84  30.985 36.34 
C 28.867 30.004 36.058
C 29.129 29.63  34.716
C 30.344 30.214 34.367
C 27.735 29.515 36.939
H 26.884 30.253 37.116
H 27.281 28.567 36.531
H 28.068 29.157 37.972
C 28.751 28.689 33.648
O 27.827 27.898 33.578
C 29.886 28.727 32.588
H 29.545 29.06  31.626
C 30.505 27.382 32.625
O 30.881 26.784 33.627
O 30.558 26.811 31.381
C 30.964 25.392 31.416
H 31.864 25.232 32.037
H 30.095 24.921 31.84 
H 31.085 25.234 30.342
C 30.637 27.261 26.924
H 31.407 26.619 26.444
H 30.013 27.761 26.131
C 29.653 26.354 27.635
H 28.977 27.04  28.19 
C 29.552 25.003 27.755
C 30.441 24.004 27.007
H 31.145 24.462 26.345
H 31.042 23.512 27.726
H 29.818 23.428 26.408
C 28.514 24.396 28.609
H 28.039 25.165 29.205
H 28.994 23.579 29.108
C 27.417 23.663 27.809
H 27.824 22.759 27.293
H 26.882 24.403 27.172
C 26.331 23.154 28.813
H 25.791 24.003 29.158
H 26.851 22.761 29.656
C 25.339 21.96  28.484
H 26.013 21.147 28.292
C 24.457 22.077 27.123
H 25.137 22.168 26.278
H 23.687 21.304 26.953
H 23.808 23.001 27.18 
C 24.403 21.622 29.736
H 25.036 21.426 30.605
H 24.019 20.614 29.491
C 23.282 22.603 30.113
H 22.354 22.055 30.07 
H 23.231 23.388 29.406
C 23.57  23.285 31.506
H 23.823 24.339 31.337
H 24.37  22.931 32.144
C 22.25  23.292 32.329
H 21.451 23.676 31.698
C 22.371 24.278 33.596
H 22.663 25.234 33.177
H 21.467 24.453 34.147
H 23.158 23.848 34.279
C 21.815 21.838 32.811
H 22.453 21.521 33.619
H 22.045 21.156 31.989
C 20.278 21.767 33.253
H 19.947 20.829 32.891
H 19.709 22.555 32.778
C 19.929 21.833 34.823
H 19.151 22.482 35.145
H 20.777 22.193 35.333
C 19.503 20.436 35.386
H 20.29  19.752 35.009
C 18.169 20.031 34.806
H 17.818 19.016 35.024
H 17.234 20.554 35.127
H 18.161 20.088 33.669
C 19.365 20.511 36.888
H 19.141 19.617 37.433
H 20.275 20.85  37.41 
H 18.576 21.221 37.055
