137

Mg 37.253 32.673 34.823
C 34.317 30.854 33.954
C 38.718 31.747 31.98 
H 39.156 31.474 31.008
C 40.129 34.083 35.96 
H 40.914 34.809 36.236
C 35.645 33.449 37.764
H 35.167 33.803 38.653
N 36.626 31.389 33.195
C 35.363 30.794 32.995
C 35.347 30.048 31.67 
H 35.09  28.99  31.904
C 36.77  30.187 31.147
H 36.68  30.561 30.11 
C 37.419 31.2   32.18 
C 37.608 28.87  31.241
H 38.611 28.955 30.803
H 37.592 28.487 32.345
H 37.087 28.158 30.62 
C 34.231 30.482 30.789
H 34.395 31.516 30.411
H 33.316 30.582 31.306
C 34.075 29.537 29.584
H 34.573 29.962 28.667
H 34.504 28.597 29.791
C 32.623 29.243 29.214
O 32.118 28.135 29.218
O 31.988 30.421 28.862
N 39.111 32.858 34.117
C 39.513 32.546 32.841
C 40.85  32.977 32.611
C 41.303 33.539 33.781
C 40.141 33.539 34.701
C 41.645 32.806 31.263
H 40.991 32.868 30.479
H 42.537 33.482 31.32 
H 42.126 31.823 31.14 
C 42.605 34.186 33.994
H 43.112 34.59  33.107
C 43.262 34.304 35.143
H 42.762 33.99  36.063
H 44.187 34.926 35.237
N 37.868 33.554 36.628
C 39.099 34.09  36.885
C 39.047 34.852 38.126
C 37.789 34.565 38.657
C 37.052 33.833 37.66 
C 40.206 35.552 38.725
H 40.732 36.121 37.963
H 39.866 36.246 39.533
H 40.781 34.775 39.116
C 37.195 35.035 40.003
H 36.522 34.359 40.444
H 38.024 35.266 40.72 
C 36.461 36.329 39.951
H 36.854 37.012 39.161
H 35.393 36.103 39.693
H 36.451 36.85  40.933
N 35.483 32.233 35.743
C 34.945 32.626 36.938
C 33.64  32.129 37.174
C 33.422 31.345 36.065
C 34.48  31.514 35.18 
C 32.688 32.365 38.317
H 31.971 31.559 38.3  
H 33.22  32.394 39.289
H 32.157 33.309 38.15 
C 32.463 30.467 35.522
O 31.393 30.05  35.928
C 32.953 30.225 34.068
H 32.262 30.648 33.416
C 32.961 28.768 33.835
O 33.662 27.955 34.452
O 32.065 28.348 32.941
C 32.166 26.964 32.527
H 31.285 26.466 32.97 
H 31.953 26.896 31.501
H 33.109 26.434 32.74 
C 30.647 30.136 28.479
H 30.186 29.856 29.387
H 30.696 29.357 27.737
C 30.049 31.417 27.891
H 30.6   31.923 27.088
C 28.879 31.959 28.312
C 27.964 31.378 29.366
H 28.058 30.286 29.526
H 28.282 31.76  30.339
H 26.909 31.604 29.109
C 28.348 33.281 27.685
H 29.024 33.939 27.261
H 27.907 33.83  28.515
C 27.222 33.066 26.685
H 26.933 31.997 26.488
H 27.583 33.459 25.678
C 25.913 33.876 27.051
H 25.835 33.966 28.135
H 25.167 33.178 26.715
C 25.756 35.296 26.335
H 25.851 35.145 25.241
C 26.8   36.387 26.784
H 27.143 36.387 27.818
H 27.549 36.073 26.143
H 26.591 37.435 26.471
C 24.411 35.92  26.538
H 24.462 36.773 25.922
H 24.414 36.358 27.515
C 23.177 35.026 26.244
H 23.492 34.096 25.811
H 22.599 35.645 25.548
C 22.129 34.853 27.461
H 21.239 35.406 27.095
H 22.493 35.378 28.352
C 21.785 33.4   27.712
H 22.682 32.774 27.825
C 20.913 32.705 26.619
H 20.191 31.899 27.01 
H 20.407 33.561 26.056
H 21.523 32.065 25.993
C 20.963 33.302 29.073
H 20.564 32.305 29.076
H 20.187 34.047 29.097
C 21.839 33.51  30.396
H 21.53  34.42  30.956
H 22.917 33.689 30.082
C 21.843 32.356 31.372
H 21.25  31.453 31.183
H 21.53  32.796 32.41 
C 23.311 31.732 31.514
H 24.009 32.523 31.621
C 23.842 31.019 30.202
H 23.799 31.653 29.378
H 24.901 30.742 30.364
H 23.213 30.202 29.887
C 23.271 30.666 32.686
H 22.472 29.986 32.426
H 24.178 29.987 32.918
H 22.997 31.194 33.579
