137

Mg 29.415 30.402 35.866
C 29.312 27.095 36.726
C 29.312 29.479 32.511
H 29.276 29.238 31.487
C 29.463 33.626 34.933
H 29.42  34.713 34.646
C 30.307 31.279 39.115
H 30.687 31.602 40.081
N 29.176 28.518 34.705
C 29.103 27.236 35.348
C 28.791 26.181 34.321
H 29.656 25.556 34.389
C 28.953 26.951 32.996
H 28.04  27.024 32.41 
C 29.162 28.414 33.402
C 30.066 26.495 32.034
H 30.981 27.088 32.324
H 30.284 25.422 32.186
H 29.667 26.74  31.029
C 27.484 25.382 34.46 
H 26.746 26.149 34.199
H 27.453 25.159 35.504
C 27.283 24.218 33.583
H 26.438 24.52  32.924
H 28.182 23.913 32.971
C 26.928 22.97  34.4  
O 27.614 22.361 35.179
O 25.61  22.613 34.101
N 29.464 31.417 34.047
C 29.419 30.864 32.788
C 29.299 31.895 31.849
C 29.467 33.172 32.558
C 29.536 32.761 33.964
C 29.117 31.742 30.347
H 28.545 32.617 30.054
H 30.056 31.729 29.775
H 28.56  30.848 30.072
C 29.559 34.577 32.049
H 29.245 35.368 32.695
C 30.043 35.006 30.864
H 30.337 34.347 30.031
H 30.077 36.075 30.602
N 30.019 32.136 36.828
C 29.799 33.362 36.289
C 30.135 34.387 37.284
C 30.32  33.688 38.481
C 30.235 32.318 38.173
C 30.056 35.874 37.16 
H 31.026 36.3   37.241
H 29.941 36.254 36.126
H 29.312 36.221 37.819
C 30.376 34.284 39.846
H 31.378 34.165 40.228
H 30.132 35.372 39.859
C 29.481 33.662 40.99 
H 30.146 33.116 41.716
H 28.937 34.516 41.52 
H 28.724 32.98  40.474
N 29.691 29.491 37.518
C 30.002 29.947 38.82 
C 30.118 28.83  39.773
C 29.795 27.735 38.924
C 29.642 28.174 37.604
C 30.36  28.855 41.153
H 29.641 29.497 41.703
H 30.295 27.846 41.538
H 31.302 29.299 41.125
C 29.728 26.255 39.01 
O 29.941 25.485 39.945
C 29.321 25.817 37.561
H 28.361 25.306 37.53 
C 30.289 24.708 37.218
O 31.301 24.863 36.639
O 29.817 23.501 37.728
C 30.328 22.331 37.022
H 30.03  22.352 35.972
H 31.396 22.185 37.179
H 29.984 21.473 37.574
C 25.144 21.568 34.994
H 25.193 21.951 36.01 
H 25.623 20.644 34.912
C 23.724 21.181 34.495
H 23.574 21.274 33.438
C 22.691 20.79  35.24 
C 22.83  20.365 36.685
H 23.691 19.666 36.764
H 22.802 21.149 37.465
H 22.078 19.559 36.795
C 21.424 20.519 34.536
H 21.43  21.048 33.61 
H 20.643 20.999 35.138
C 21.082 19.029 34.297
H 20.239 18.79  34.868
H 21.887 18.37  34.654
C 20.799 18.661 32.862
H 21.548 19.202 32.237
H 19.736 18.95  32.734
C 20.988 17.185 32.466
H 21.97  16.937 32.757
C 21.087 17.    30.882
H 21.441 15.969 30.754
H 20.135 17.186 30.481
H 21.757 17.698 30.329
C 19.851 16.289 33.057
H 20.065 16.323 34.15 
H 20.165 15.291 32.675
C 18.401 16.567 32.791
H 18.352 17.36  32.011
H 17.997 17.087 33.694
C 17.493 15.329 32.483
H 16.492 15.314 32.986
H 17.869 14.411 32.92 
C 17.46  14.955 31.018
H 18.383 15.412 30.632
C 16.29  15.665 30.404
H 15.413 15.147 30.8  
H 16.352 16.62  30.798
H 16.344 15.55  29.352
C 17.476 13.423 30.765
H 17.044 13.152 29.798
H 16.853 13.006 31.61 
C 18.914 12.823 30.732
H 19.544 13.703 30.886
H 19.108 12.496 29.738
C 19.028 11.637 31.789
H 18.54  11.992 32.699
H 20.025 11.573 32.14 
C 18.56  10.194 31.401
H 18.975 10.173 30.372
C 17.056  9.94  31.469
H 16.802  9.945 32.508
H 16.594 10.784 30.955
H 16.729  8.969 31.017
C 19.315  9.165 32.284
H 20.367  9.29  32.117
H 19.149  9.481 33.307
H 19.071  8.162 31.932
