137

Mg 23.149 19.835 28.378
C 23.177 17.494 25.836
C 26.097 21.142 27.019
H 26.952 21.529 26.465
C 23.43  21.877 31.023
H 23.522 22.413 31.899
C 20.33  18.251 29.765
H 19.502 17.718 30.238
N 24.404 19.351 26.614
C 24.176 18.434 25.681
C 25.211 18.454 24.599
H 25.693 17.505 24.452
C 26.247 19.548 25.041
H 26.198 20.39  24.348
C 25.546 20.059 26.289
C 27.658 19.011 25.2  
H 27.841 18.15  25.871
H 28.188 18.571 24.328
H 28.317 19.818 25.567
C 24.599 18.764 23.224
H 24.155 19.745 23.332
H 23.77  18.07  23.147
C 25.545 18.919 22.102
H 26.599 18.714 22.351
H 25.186 18.124 21.413
C 25.518 20.09  21.168
O 25.857 19.945 20.004
O 25.04  21.295 21.707
N 24.588 21.239 28.974
C 25.694 21.709 28.254
C 26.407 22.814 29.05 
C 25.533 23.025 30.133
C 24.455 22.016 30.078
C 27.765 23.515 28.744
H 27.791 24.612 28.951
H 28.526 23.04  29.434
H 28.008 23.522 27.699
C 25.537 24.066 31.175
H 24.642 24.33  31.703
C 26.701 24.683 31.525
H 27.601 24.56  30.972
H 26.755 25.488 32.216
N 22.057 20.014 30.059
C 22.354 20.887 31.041
C 21.287 20.8   32.155
C 20.491 19.7   31.777
C 20.931 19.342 30.46 
C 21.396 21.639 33.406
H 22.406 21.433 33.857
H 21.415 22.665 32.98 
H 20.577 21.637 34.142
C 19.452 19.139 32.707
H 19.487 18.045 32.837
H 19.53  19.663 33.692
C 18.041 19.298 32.054
H 17.975 18.803 31.087
H 17.187 19.04  32.698
H 17.845 20.331 31.875
N 21.985 18.198 27.972
C 20.888 17.726 28.586
C 20.423 16.551 27.936
C 21.351 16.399 26.876
C 22.216 17.45  26.885
C 19.3   15.617 28.343
H 19.506 14.589 27.957
H 19.112 15.594 29.398
H 18.342 15.937 27.975
C 21.751 15.43  25.873
O 21.238 14.333 25.649
C 22.817 16.231 25.026
H 22.271 16.467 24.049
C 23.938 15.232 24.949
O 24.395 14.613 25.879
O 24.433 15.249 23.651
C 25.604 14.405 23.325
H 25.641 13.48  23.861
H 25.671 14.083 22.274
H 26.535 14.91  23.476
C 25.38  22.5   20.931
H 24.876 22.738 19.937
H 26.452 22.521 20.624
C 25.149 23.595 21.875
H 26.007 23.961 22.352
C 23.929 24.124 22.158
C 22.631 23.732 21.346
H 22.683 24.419 20.503
H 22.812 22.83  20.893
H 21.779 23.793 22.005
C 23.659 25.231 23.141
H 24.587 25.459 23.614
H 22.922 24.841 23.825
C 23.182 26.637 22.657
H 22.084 26.733 22.742
H 23.437 26.645 21.61 
C 23.79  27.862 23.373
H 24.285 27.62  24.339
H 22.934 28.505 23.622
C 24.722 28.736 22.57 
H 24.254 29.054 21.621
C 25.97  27.852 22.394
H 26.656 27.796 23.297
H 25.67  26.914 21.914
H 26.526 28.399 21.684
C 25.124 30.014 23.416
H 25.89  30.581 22.827
H 25.578 29.686 24.323
C 23.992 31.065 23.773
H 23.166 30.908 23.175
H 24.339 32.009 23.408
C 23.893 31.326 25.342
H 23.948 32.403 25.513
H 24.711 30.9   25.925
C 22.432 30.928 25.847
H 22.33  29.869 25.564
C 21.173 31.644 25.193
H 21.102 31.713 24.119
H 20.275 30.978 25.394
H 20.981 32.62  25.736
C 22.454 30.908 27.439
H 22.232 31.965 27.638
H 23.431 30.538 27.845
C 21.222 30.152 27.971
H 20.934 29.453 27.257
H 20.442 30.849 28.155
C 21.458 29.392 29.324
H 22.21  29.84  29.895
H 21.885 28.512 28.878
C 20.374 29.044 30.389
H 20.172 29.917 30.909
C 20.86  28.001 31.46 
H 20.079 27.673 32.036
H 21.198 27.144 30.924
H 21.58  28.487 32.157
C 19.093 28.464 29.713
H 19.318 27.506 29.227
H 18.298 28.223 30.497
H 18.761 29.169 28.968
