137

Mg 19.854 26.636 26.32 
C 23.194 25.772 26.297
C 20.426 28.634 29.047
H 20.506 29.25  29.968
C 16.404 27.175 26.701
H 15.325 27.248 26.936
C 19.317 24.129 23.965
H 19.184 23.417 23.136
N 21.586 27.187 27.443
C 22.845 26.771 27.267
C 23.865 27.328 28.269
H 24.32  26.498 28.855
C 22.933 28.083 29.211
H 23.175 29.127 29.245
C 21.525 27.977 28.506
C 22.843 27.645 30.697
H 23.902 27.695 31.011
H 22.105 28.252 31.257
H 22.506 26.575 30.734
C 24.944 28.319 27.609
H 24.352 29.189 27.257
H 25.277 27.914 26.659
C 26.091 28.616 28.532
H 26.093 27.971 29.412
H 27.028 28.276 27.973
C 26.396 30.075 29.026
O 27.396 30.706 28.809
O 25.302 30.563 29.772
N 18.674 27.818 27.533
C 19.112 28.66  28.486
C 18.046 29.55  28.973
C 16.865 29.084 28.345
C 17.273 28.005 27.428
C 18.233 30.673 29.944
H 18.659 30.247 30.858
H 18.776 31.476 29.537
H 17.221 31.018 30.174
C 15.543 29.675 28.69 
H 15.218 29.916 29.677
C 14.703 29.956 27.738
H 14.901 29.772 26.663
H 13.74  30.438 27.924
N 18.1   25.776 25.453
C 16.802 26.181 25.777
C 15.872 25.457 24.92 
C 16.692 24.52  24.236
C 18.082 24.73  24.526
C 14.368 25.428 24.822
H 13.818 26.269 25.376
H 14.034 25.592 23.762
H 13.954 24.451 25.16 
C 16.139 23.532 23.257
H 16.723 22.625 23.206
H 15.226 23.066 23.65 
C 15.981 24.076 21.825
H 16.663 24.926 21.599
H 15.93  23.321 21.084
H 15.039 24.542 21.81 
N 20.995 25.286 25.199
C 20.634 24.35  24.324
C 21.812 23.617 23.881
C 22.809 24.131 24.717
C 22.282 25.138 25.457
C 21.904 22.4   22.922
H 20.929 21.953 22.738
H 22.346 22.751 21.976
H 22.627 21.69  23.302
C 24.219 23.997 25.033
O 25.08  23.228 24.677
C 24.51  25.167 25.988
H 25.071 25.968 25.491
C 25.314 24.661 27.167
O 24.912 23.952 28.013
O 26.64  25.013 27.023
C 27.554 24.445 27.994
H 27.414 23.33  28.045
H 28.525 24.692 27.602
H 27.363 24.833 28.998
C 25.538 31.9   30.34 
H 26.449 32.427 29.979
H 25.723 31.684 31.429
C 24.314 32.806 30.135
H 23.455 32.488 30.695
C 24.184 34.027 29.556
C 25.267 34.707 28.663
H 24.965 34.656 27.641
H 25.537 35.754 28.877
H 26.18  34.079 28.678
C 22.926 34.853 29.527
H 22.24  34.536 30.249
H 22.619 34.83  28.498
C 23.065 36.334 29.867
H 23.936 36.555 30.525
H 22.285 36.532 30.577
C 23.276 37.329 28.74 
H 23.478 36.817 27.789
H 24.123 37.954 28.979
C 22.097 38.301 28.64 
H 21.783 38.588 29.575
C 20.913 37.564 27.973
H 21.123 37.344 26.899
H 20.737 36.612 28.558
H 19.971 38.178 27.977
C 22.53  39.575 27.748
H 21.556 40.163 27.74 
H 22.569 39.264 26.684
C 23.724 40.455 28.087
H 24.486 40.117 27.336
H 23.973 40.281 29.135
C 23.443 41.943 27.748
H 23.392 42.533 28.693
H 22.474 42.061 27.26 
C 24.462 42.74  26.824
H 25.484 42.476 27.02 
C 24.527 44.213 27.27 
H 24.631 44.255 28.348
H 25.516 44.724 27.021
H 23.836 44.919 26.757
C 24.152 42.533 25.311
H 23.068 42.729 25.258
H 24.288 41.431 25.101
C 24.946 43.395 24.279
H 25.745 43.898 24.788
H 24.167 44.095 23.837
C 25.494 42.454 23.247
H 25.616 41.448 23.628
H 26.512 42.904 23.103
C 24.732 42.415 21.936
H 24.839 43.381 21.443
C 23.197 42.232 21.946
H 22.756 42.505 22.921
H 22.794 42.949 21.246
H 22.897 41.149 21.816
C 25.402 41.473 20.99 
H 25.639 40.518 21.51 
H 24.925 41.34  20.054
H 26.328 41.96  20.662
