137

Mg 28.431 29.705 37.638
C 25.316 29.018 39.033
C 27.405 28.058 34.842
H 27.027 27.515 33.918
C 31.343 30.618 36.107
H 32.354 30.803 35.645
C 29.414 31.234 40.492
H 29.698 31.83  41.369
N 26.575 28.788 37.009
C 25.466 28.616 37.705
C 24.364 27.941 36.899
H 24.006 27.145 37.567
C 25.113 27.371 35.669
H 24.748 27.734 34.725
C 26.479 28.071 35.897
C 25.337 25.845 35.603
H 24.464 25.183 35.644
H 25.961 25.635 34.745
H 25.893 25.607 36.468
C 23.189 28.933 36.643
H 23.568 29.629 35.938
H 22.91  29.484 37.487
C 21.989 28.193 36.139
H 22.248 27.148 35.858
H 21.212 28.098 36.965
C 21.278 28.743 34.892
O 20.313 29.557 34.935
O 21.909 28.329 33.762
N 29.204 29.433 35.732
C 28.599 28.754 34.743
C 29.44  28.741 33.583
C 30.482 29.605 33.84 
C 30.42  29.943 35.288
C 29.078 28.024 32.255
H 28.053 28.36  31.934
H 29.806 28.301 31.494
H 29.073 27.009 32.575
C 31.614 29.822 32.931
H 31.869 29.064 32.27 
C 32.41  30.907 32.974
H 32.323 31.729 33.619
H 33.269 31.057 32.347
N 30.081 30.716 38.14 
C 31.219 30.958 37.395
C 32.207 31.799 38.108
C 31.651 31.908 39.375
C 30.309 31.305 39.373
C 33.515 32.219 37.515
H 33.893 31.252 37.038
H 33.346 33.038 36.819
H 34.163 32.536 38.291
C 32.415 32.442 40.616
H 31.946 32.119 41.467
H 33.492 32.034 40.611
C 32.482 33.893 40.717
H 32.756 34.302 41.733
H 33.233 34.149 39.941
H 31.543 34.35  40.403
N 27.612 30.017 39.345
C 28.121 30.692 40.453
C 27.238 30.561 41.559
C 26.085 29.989 41.02 
C 26.346 29.691 39.659
C 27.467 31.155 42.896
H 28.471 30.839 43.189
H 27.276 32.175 43.01 
H 26.705 30.652 43.492
C 24.749 29.611 41.413
O 24.118 29.787 42.424
C 24.21  28.858 40.184
H 23.178 29.324 40.069
C 24.096 27.507 40.706
O 25.058 26.695 40.698
O 22.833 27.162 41.172
C 22.61  25.679 41.467
H 22.811 25.051 40.603
H 23.252 25.3   42.253
H 21.685 25.425 41.918
C 21.395 29.081 32.603
H 21.636 30.144 32.679
H 20.331 28.754 32.488
C 22.173 28.871 31.269
H 23.173 29.154 31.487
C 21.814 28.557 29.992
C 20.481 28.077 29.533
H 20.603 27.207 28.985
H 19.817 27.942 30.42 
H 19.972 28.786 28.823
C 22.816 28.721 28.939
H 23.402 29.541 29.178
H 22.325 28.977 28.019
C 23.8   27.628 28.611
H 23.534 26.688 29.089
H 24.762 27.851 29.132
C 24.008 27.323 27.091
H 24.986 27.743 26.936
H 23.249 27.817 26.481
C 24.075 25.819 26.736
H 24.647 25.259 27.54 
C 25.035 25.585 25.552
H 25.035 24.511 25.312
H 24.664 26.163 24.698
H 26.071 25.922 25.694
C 22.658 25.108 26.709
H 22.286 25.162 27.756
H 22.918 23.991 26.533
C 21.599 25.663 25.752
H 22.097 25.846 24.837
H 21.213 26.561 26.144
C 20.504 24.632 25.408
H 20.773 23.619 25.533
H 20.32  24.778 24.305
C 19.186 24.823 26.174
H 18.917 25.867 26.027
C 19.353 24.529 27.7  
H 19.513 23.456 27.855
H 20.177 25.154 27.912
H 18.435 24.861 28.174
C 18.049 23.862 25.503
H 18.358 22.901 25.84 
H 17.976 23.966 24.462
C 16.62  24.032 25.989
H 16.015 23.923 25.094
H 16.322 25.009 26.32 
C 16.101 22.937 27.07 
H 17.058 22.663 27.46 
H 15.52  22.142 26.69 
C 15.324 23.576 28.263
H 15.704 24.62  28.41 
C 15.592 22.893 29.63 
H 16.554 23.217 30.048
H 14.801 23.164 30.282
H 15.567 21.873 29.522
C 13.827 23.77  27.954
H 13.743 24.354 27.022
H 13.404 22.777 27.829
H 13.392 24.372 28.766
