137

Mg 27.796 33.264 39.165
C 25.617 30.915 40.536
C 24.976 35.229 38.48 
H 24.051 35.82  38.318
C 29.756 35.605 37.919
H 30.415 36.296 37.424
C 30.478 31.222 39.989
H 31.374 30.609 40.374
N 25.573 33.182 39.616
C 24.987 32.094 40.233
C 23.453 32.228 40.215
H 23.116 31.471 39.51 
C 23.215 33.562 39.383
H 22.647 34.331 39.968
C 24.691 34.041 39.139
C 22.548 33.322 38.067
H 22.482 34.219 37.548
H 23.101 32.613 37.493
H 21.567 32.95  38.293
C 22.723 32.238 41.584
H 22.807 33.279 41.949
H 23.044 31.488 42.257
C 21.2   31.917 41.357
H 21.027 31.746 40.313
H 20.984 30.928 41.825
C 20.126 32.881 41.673
O 19.474 32.92  42.69 
O 20.083 33.798 40.648
N 27.415 35.14  38.356
C 26.2   35.775 38.132
C 26.431 36.996 37.38 
C 27.792 37.136 37.183
C 28.395 35.923 37.865
C 25.341 37.831 36.676
H 24.421 37.948 37.261
H 25.771 38.828 36.492
H 25.044 37.446 35.684
C 28.58  38.037 36.319
H 28.606 39.063 36.561
C 29.336 37.447 35.415
H 29.207 36.427 35.172
H 30.037 37.938 34.784
N 29.706 33.462 39.068
C 30.356 34.512 38.44 
C 31.825 34.368 38.59 
C 32.016 33.096 39.162
C 30.684 32.553 39.446
C 32.874 35.399 38.2  
H 33.523 35.043 37.477
H 32.36  36.34  37.852
H 33.504 35.655 39.091
C 33.284 32.368 39.511
H 33.191 31.409 39.025
H 34.12  32.821 39.018
C 33.482 32.296 41.054
H 32.963 33.088 41.525
H 33.206 31.373 41.542
H 34.519 32.367 41.241
N 28.073 31.422 40.085
C 29.199 30.638 40.185
C 28.798 29.312 40.665
C 27.429 29.446 40.887
C 27.02  30.688 40.453
C 29.747 28.182 40.943
H 30.368 28.487 41.76 
H 29.173 27.317 41.241
H 30.298 28.046 40.032
C 26.28  28.777 41.422
O 26.312 27.643 41.926
C 25.042 29.639 41.2  
H 24.678 29.803 42.159
C 24.132 28.718 40.498
O 24.022 28.595 39.249
O 23.465 27.949 41.441
C 22.495 26.938 41.007
H 21.831 27.472 40.268
H 23.08  26.048 40.55 
H 21.881 26.486 41.79 
C 19.304 34.991 40.766
H 19.616 35.474 41.69 
H 18.247 34.733 40.788
C 19.596 35.892 39.648
H 19.047 35.502 38.792
C 20.303 37.078 39.586
C 21.152 37.653 40.684
H 20.453 38.335 41.121
H 21.562 36.921 41.33 
H 22.022 38.036 40.154
C 20.498 37.667 38.178
H 19.978 37.033 37.538
H 21.564 37.483 37.826
C 19.97  39.076 37.992
H 20.264 39.546 37.029
H 20.427 39.71  38.772
C 18.406 39.202 38.051
H 18.143 40.058 38.727
H 18.022 38.285 38.481
C 17.753 39.426 36.571
H 18.174 40.274 36.208
C 16.264 39.859 36.561
H 16.227 40.843 37.059
H 15.904 39.958 35.519
H 15.68  39.136 37.161
C 17.994 38.234 35.599
H 19.116 38.152 35.487
H 17.612 38.469 34.663
C 17.481 36.838 36.006
H 16.48  36.786 35.674
H 17.491 36.639 37.14 
C 18.419 35.624 35.455
H 18.495 34.95  36.295
H 19.392 36.027 35.136
C 17.831 34.804 34.237
H 16.867 34.281 34.525
C 18.82  33.704 33.832
H 18.444 33.226 32.953
H 19.844 34.054 33.811
H 18.763 32.88  34.508
C 17.449 35.718 33.051
H 18.4  36.04 32.55
H 16.932 36.623 33.348
C 16.521 35.03  32.05 
H 15.561 35.568 31.915
H 16.372 34.034 32.403
C 17.057 34.959 30.582
H 17.759 35.72  30.408
H 16.282 35.338 30.026
C 17.629 33.594 30.121
H 18.393 33.185 30.841
C 18.435 33.719 28.823
H 19.216 32.936 28.763
H 17.816 33.503 28.065
H 18.902 34.674 28.621
C 16.528 32.502 30.106
H 15.668 32.922 29.584
H 16.925 31.662 29.606
H 16.236 32.177 31.072
