137

Mg 21.019 28.504 32.363
C 22.761 25.696 33.619
C 18.445 27.762 34.588
H 17.622 27.628 35.333
C 19.396 31.15  31.268
H 18.903 32.1   30.95 
C 23.499 28.92  29.964
H 24.318 29.028 29.22 
N 20.625 26.881 33.895
C 21.5   25.814 34.24 
C 20.861 24.857 35.224
H 20.686 23.951 34.632
C 19.406 25.477 35.397
H 19.213 25.567 36.461
C 19.473 26.786 34.6  
C 18.222 24.595 34.821
H 18.391 24.485 33.709
H 18.179 23.632 35.33 
H 17.33  25.226 34.96 
C 21.715 24.526 36.543
H 21.995 25.44  37.048
H 22.593 23.959 36.26 
C 20.946 23.687 37.6  
H 20.028 23.384 37.151
H 21.588 22.775 37.696
C 20.583 24.428 38.976
O 21.232 24.427 40.033
O 19.317 25.037 38.78 
N 19.186 29.306 32.811
C 18.281 28.888 33.826
C 17.189 29.886 33.861
C 17.432 30.864 32.89 
C 18.719 30.44  32.259
C 15.988 29.863 34.786
H 15.997 28.941 35.436
H 15.935 30.693 35.522
H 15.157 29.801 34.118
C 16.653 32.104 32.419
H 17.063 32.737 31.622
C 15.582 32.604 33.12 
H 15.106 32.112 34.008
H 15.125 33.634 32.926
N 21.414 29.794 30.9  
C 20.653 30.889 30.605
C 21.125 31.628 29.424
C 22.353 31.012 29.086
C 22.394 29.805 29.989
C 20.579 32.884 28.785
H 21.113 33.833 28.966
H 20.727 32.627 27.706
H 19.501 33.074 28.899
C 23.299 31.465 28.053
H 23.383 30.706 27.267
H 22.879 32.324 27.481
C 24.698 31.774 28.521
H 25.17  32.567 27.969
H 24.643 32.087 29.588
H 25.3   30.857 28.619
N 22.719 27.569 31.792
C 23.685 27.873 30.822
C 24.782 26.862 30.917
C 24.481 26.088 32.011
C 23.186 26.474 32.484
C 25.955 26.794 29.978
H 26.596 27.578 30.357
H 26.564 25.857 30.054
H 25.607 27.002 28.973
C 24.971 25.02  32.823
O 26.089 24.41  32.778
C 23.83  24.659 33.797
H 24.352 24.735 34.757
C 23.432 23.239 33.567
O 22.687 22.879 32.68 
O 23.886 22.348 34.551
C 23.111 21.122 34.647
H 22.271 21.161 35.314
H 22.717 20.713 33.697
H 23.743 20.321 35.147
C 18.927 25.821 39.926
H 19.726 26.565 40.148
H 18.656 25.246 40.794
C 17.672 26.527 39.535
H 16.803 25.934 39.583
C 17.511 27.805 39.16 
C 18.648 28.736 38.764
H 19.595 28.271 39.029
H 18.545 29.031 37.686
H 18.671 29.582 39.454
C 16.118 28.372 38.925
H 15.343 27.652 38.97 
H 16.206 28.834 37.955
C 15.694 29.558 39.797
H 16.404 29.495 40.658
H 14.676 29.404 40.204
C 15.689 30.847 38.992
H 15.339 30.653 37.945
H 16.788 31.114 38.846
C 14.957 32.116 39.517
H 15.553 32.561 40.318
C 13.598 31.838 40.161
H 12.97  31.287 39.478
H 13.744 31.224 41.   
H 13.127 32.742 40.557
C 14.615 33.026 38.405
H 13.669 32.67  37.964
H 15.339 32.872 37.661
C 14.386 34.552 38.782
H 14.419 34.792 39.838
H 13.386 34.809 38.574
C 15.292 35.38  37.87 
H 16.23  34.902 37.555
H 15.693 36.283 38.497
C 14.663 35.912 36.497
H 13.898 36.613 36.734
C 13.997 34.759 35.715
H 13.564 35.122 34.759
H 14.807 34.04  35.563
H 13.195 34.354 36.289
C 15.792 36.562 35.653
H 15.516 36.373 34.628
H 16.759 36.084 35.829
C 15.901 38.055 35.761
H 16.745 38.277 36.295
H 14.982 38.461 36.308
C 16.008 38.847 34.515
H 15.025 39.371 34.322
H 16.098 38.245 33.655
C 17.169 39.951 34.558
H 17.041 40.505 35.49 
C 17.093 40.965 33.415
H 16.243 41.675 33.614
H 17.963 41.644 33.384
H 16.989 40.504 32.425
C 18.527 39.235 34.507
H 19.326 39.834 34.943
H 18.484 38.293 35.094
H 18.702 38.696 33.549
