137

Mg 29.262 28.422 32.997
C 26.932 27.447 30.527
C 31.663 28.198 30.512
H 32.451 28.014 29.799
C 31.511 29.54  35.22 
H 32.278 29.909 35.913
C 26.735 28.627 35.181
H 25.922 28.633 35.875
N 29.286 27.866 30.76 
C 28.218 27.578 30.011
C 28.652 27.41  28.544
H 28.125 26.607 28.084
C 30.16  27.118 28.591
H 30.722 27.59  27.791
C 30.426 27.827 30.014
C 30.579 25.684 28.558
H 29.955 25.109 29.244
H 30.445 25.456 27.516
H 31.633 25.538 28.694
C 28.199 28.615 27.714
H 28.974 29.374 27.731
H 27.219 28.952 28.156
C 27.96  28.508 26.253
H 28.792 28.9   25.745
H 28.    27.484 25.973
C 26.797 29.133 25.608
O 26.87  29.947 24.68 
O 25.591 28.568 26.06 
N 31.218 28.776 32.917
C 32.096 28.559 31.855
C 33.445 28.732 32.25 
C 33.435 29.073 33.602
C 32.053 29.172 33.946
C 34.609 28.649 31.294
H 34.366 27.936 30.512
H 35.005 29.605 30.839
H 35.509 28.143 31.701
C 34.502 29.428 34.569
H 34.306 30.14  35.399
C 35.721 28.839 34.63 
H 35.943 27.991 33.896
H 36.574 28.948 35.422
N 29.07  29.122 34.873
C 30.148 29.562 35.617
C 29.601 30.084 36.832
C 28.209 29.917 36.821
C 27.939 29.178 35.629
C 30.391 30.868 37.862
H 30.603 31.784 37.388
H 29.691 31.019 38.745
H 31.353 30.441 38.22 
C 27.163 30.39  37.801
H 26.504 29.639 38.017
H 27.609 30.609 38.752
C 26.435 31.604 37.324
H 26.272 31.405 36.274
H 25.493 31.586 37.888
H 27.088 32.477 37.501
N 27.246 28.188 32.891
C 26.366 28.237 33.91 
C 25.018 27.878 33.441
C 25.242 27.584 32.119
C 26.602 27.795 31.823
C 23.804 27.611 34.248
H 23.05  28.299 33.949
H 23.498 26.582 34.157
H 24.003 27.765 35.274
C 24.574 27.076 30.989
O 23.439 26.632 30.947
C 25.627 27.016 29.838
H 25.347 27.538 28.944
C 25.646 25.581 29.505
O 26.259 24.752 30.155
O 24.778 25.238 28.506
C 24.618 23.84  28.089
H 25.534 23.299 27.775
H 24.184 23.295 28.877
H 23.988 23.856 27.173
C 24.316 29.041 25.419
H 24.398 28.766 24.435
H 24.225 30.127 25.593
C 23.21  28.332 26.141
H 22.894 28.897 27.052
C 22.879 27.07  25.887
C 23.404 26.27  24.713
H 22.579 25.917 24.069
H 24.135 26.862 24.162
H 23.904 25.343 25.059
C 21.862 26.401 26.755
H 21.991 26.792 27.757
H 22.126 25.352 26.693
C 20.36  26.543 26.443
H 20.021 25.623 25.976
H 20.176 27.377 25.77 
C 19.49  26.623 27.73 
H 18.922 27.57  27.555
H 20.077 26.705 28.658
C 18.48  25.398 27.805
H 17.964 25.264 26.829
C 17.476 25.704 28.985
H 18.067 25.5   29.895
H 17.083 26.716 28.924
H 16.575 25.103 28.714
C 19.25  24.086 28.005
H 20.027 23.919 27.251
H 18.497 23.309 27.802
C 20.018 23.733 29.262
H 19.59  24.163 30.146
H 21.003 24.189 29.214
C 20.367 22.279 29.377
H 21.463 22.2   29.28 
H 19.917 21.81  28.467
C 19.902 21.616 30.711
H 20.265 22.146 31.598
C 20.468 20.246 30.855
H 19.892 19.554 31.456
H 20.436 19.721 29.919
H 21.555 20.279 31.012
C 18.352 21.515 30.829
H 18.003 20.874 29.967
H 18.132 22.584 30.757
C 17.847 21.143 32.209
H 17.102 21.853 32.433
H 18.741 21.1   32.878
C 17.326 19.692 32.207
H 17.684 19.163 33.083
H 17.506 19.133 31.353
C 15.769 19.64  32.222
H 15.448 20.532 32.797
C 15.185 18.385 32.982
H 15.85  17.493 32.834
H 14.985 18.634 34.047
H 14.256 18.139 32.49 
C 15.296 19.671 30.724
H 15.729 18.782 30.142
H 14.202 19.521 30.706
H 15.544 20.595 30.17 
