137

Mg 35.169 35.045 35.851
C 31.808 35.527 35.47 
C 35.02  32.62  33.393
H 34.92  31.883 32.663
C 38.566 34.731 35.969
H 39.602 34.529 36.083
C 35.293 37.374 38.422
H 35.25  38.086 39.252
N 33.629 34.289 34.609
C 32.314 34.683 34.565
C 31.603 34.119 33.374
H 30.575 33.846 33.534
C 32.439 32.852 33.047
H 32.733 32.69  32.018
C 33.751 33.184 33.751
C 31.859 31.536 33.64 
H 30.914 31.056 33.194
H 32.722 30.83  33.541
H 31.677 31.561 34.664
C 31.638 35.186 32.244
H 32.612 35.34  31.941
H 31.372 36.169 32.603
C 30.795 34.911 31.097
H 31.574 34.914 30.261
H 30.377 33.917 31.264
C 29.617 35.79  30.787
O 29.563 36.657 29.903
O 28.573 35.542 31.64 
N 36.607 33.902 34.81 
C 36.343 32.961 33.773
C 37.596 32.426 33.382
C 38.568 32.998 34.178
C 37.938 33.904 35.04 
C 37.713 31.327 32.302
H 37.587 30.269 32.794
H 36.871 31.51  31.597
H 38.671 31.49  31.786
C 40.026 32.842 34.079
H 40.62  32.291 34.875
C 40.719 33.395 33.045
H 40.187 34.046 32.288
H 41.804 33.183 32.949
N 36.705 36.005 36.911
C 38.032 35.656 36.86 
C 38.737 36.469 37.887
C 37.773 37.149 38.64 
C 36.506 36.843 38.03 
C 40.215 36.582 38.069
H 40.645 37.542 37.697
H 40.511 36.536 39.184
H 40.743 35.757 37.573
C 38.012 38.156 39.813
H 37.097 38.058 40.478
H 38.829 37.859 40.416
C 38.04  39.56  39.355
H 37.122 39.763 38.844
H 38.051 40.153 40.273
H 38.852 39.809 38.688
N 33.854 36.226 36.799
C 34.007 37.076 37.873
C 32.708 37.68  38.219
C 31.809 37.119 37.287
C 32.52  36.216 36.506
C 32.459 38.591 39.334
H 31.522 38.256 39.811
H 33.233 38.525 40.048
H 32.395 39.672 38.947
C 30.371 36.923 36.909
O 29.371 37.438 37.398
C 30.301 35.995 35.676
H 29.974 36.583 34.915
C 29.386 34.835 36.026
O 29.468 34.129 37.058
O 28.329 34.86  35.155
C 27.417 33.775 35.463
H 26.736 33.9   36.335
H 26.865 33.641 34.518
H 27.905 32.825 35.589
C 27.52  36.547 31.587
H 27.029 36.722 30.602
H 27.874 37.542 31.833
C 26.598 36.197 32.686
H 26.971 36.46  33.637
C 25.381 35.65  32.702
C 24.635 35.018 31.501
H 23.73  35.571 31.294
H 25.19  35.062 30.609
H 24.325 33.971 31.766
C 24.645 35.366 33.989
H 25.249 35.624 34.78 
H 24.604 34.244 34.198
C 23.234 36.079 34.134
H 22.981 36.627 33.267
H 23.215 36.769 34.976
C 22.148 34.974 34.532
H 21.955 34.972 35.573
H 22.51  33.961 34.222
C 20.794 35.15  33.788
H 20.933 35.258 32.668
C 20.008 36.408 34.195
H 19.169 36.481 33.515
H 19.696 36.453 35.233
H 20.59  37.306 34.007
C 19.863 33.967 34.041
H 20.397 33.011 33.741
H 19.053 34.07  33.301
C 19.384 33.761 35.493
H 18.332 33.97  35.652
H 19.96  34.436 36.097
C 19.434 32.27  36.021
H 20.02  31.733 35.319
H 18.35  31.942 35.998
C 19.954 32.196 37.49 
H 19.565 33.1   38.01 
C 21.516 32.337 37.57 
H 21.972 33.144 36.97 
H 21.805 32.571 38.638
H 22.047 31.428 37.31 
C 19.577 30.85  38.123
H 20.125 30.724 39.087
H 19.848 30.049 37.479
C 18.13  30.722 38.555
H 17.756 31.696 38.341
H 18.051 30.649 39.725
C 17.352 29.581 37.899
H 17.957 28.977 37.29 
H 16.557 30.011 37.359
C 16.603 28.485 38.795
H 15.873 28.943 39.484
C 17.584 27.734 39.709
H 17.115 26.822 39.992
H 18.491 27.553 39.182
H 17.711 28.263 40.593
C 15.936 27.419 37.97 
H 15.58  26.599 38.68 
H 15.083 28.009 37.528
H 16.596 27.008 37.193
