137

Mg 29.06  32.051 36.011
C 29.045 28.668 36.72 
C 27.327 31.382 33.195
H 26.873 31.142 32.285
C 28.857 35.406 35.591
H 28.861 36.456 35.499
C 30.885 32.547 38.965
H 31.379 32.798 39.924
N 28.428 30.232 35.029
C 28.458 28.945 35.487
C 28.    27.912 34.492
H 28.848 27.294 34.228
C 27.538 28.804 33.366
H 26.474 28.789 33.286
C 27.818 30.239 33.832
C 28.12  28.466 31.943
H 29.055 28.962 31.703
H 28.167 27.366 31.871
H 27.461 28.763 31.105
C 26.876 26.914 34.93 
H 26.208 27.563 35.397
H 27.305 26.3   35.662
C 26.263 25.98  33.821
H 25.188 26.09  33.762
H 26.651 26.22  32.853
C 26.484 24.509 33.926
O 27.595 24.074 34.221
O 25.474 23.76  33.437
N 28.175 33.217 34.717
C 27.498 32.765 33.613
C 27.118 33.871 32.78 
C 27.436 35.069 33.537
C 28.235 34.606 34.682
C 26.424 33.717 31.546
H 26.363 34.6   30.928
H 27.025 32.985 30.917
H 25.417 33.373 31.68 
C 27.221 36.483 33.255
H 28.027 37.192 33.469
C 26.214 37.011 32.603
H 25.356 36.379 32.334
H 26.098 38.042 32.348
N 29.775 33.706 37.057
C 29.632 34.993 36.744
C 30.492 35.85  37.619
C 31.153 34.98  38.497
C 30.633 33.642 38.169
C 30.603 37.337 37.389
H 29.573 37.868 37.365
H 31.144 37.784 38.183
H 31.191 37.304 36.436
C 32.161 35.373 39.561
H 33.098 34.809 39.512
H 32.393 36.437 39.394
C 31.662 35.274 41.006
H 32.469 34.762 41.419
H 31.6   36.21  41.612
H 30.774 34.62  41.047
N 30.009 30.906 37.493
C 30.661 31.23  38.655
C 31.059 30.011 39.349
C 30.38  28.975 38.652
C 29.715 29.582 37.561
C 31.965 29.96  40.571
H 31.483 30.499 41.375
H 32.201 28.921 40.834
H 32.899 30.502 40.216
C 30.145 27.545 38.655
O 30.566 26.709 39.345
C 29.321 27.271 37.428
H 28.452 26.652 37.594
C 30.176 26.403 36.582
O 30.949 26.8   35.713
O 29.934 25.13  36.81 
C 30.516 24.152 35.818
H 30.013 24.307 34.824
H 31.555 24.339 35.744
H 30.328 23.156 36.14 
C 25.65  22.357 33.68 
H 25.947 22.245 34.712
H 26.54  21.919 33.167
C 24.312 21.709 33.291
H 24.003 22.058 32.263
C 23.489 20.815 33.896
C 23.699 20.25  35.291
H 22.809 20.483 35.91 
H 23.793 19.106 35.211
H 24.672 20.45  35.727
C 22.155 20.567 33.205
H 21.962 21.272 32.402
H 21.406 20.71  34.   
C 22.129 19.142 32.503
H 21.241 18.615 32.913
H 23.024 18.494 32.733
C 21.848 19.206 31.014
H 22.382 20.081 30.63 
H 20.75  19.318 30.844
C 22.338 18.018 30.076
H 23.375 17.953 30.159
C 22.079 18.431 28.619
H 22.538 17.574 28.097
H 20.972 18.547 28.434
H 22.552 19.373 28.426
C 21.552 16.666 30.532
H 21.862 16.432 31.532
H 21.84  15.819 29.909
C 20.068 16.571 30.376
H 19.812 15.811 29.639
H 19.692 17.455 29.871
C 19.436 16.389 31.743
H 18.837 17.242 31.85 
H 20.076 16.415 32.608
C 18.433 15.238 31.797
H 17.77  15.2   30.921
C 17.583 15.48  33.107
H 18.198 15.27  33.931
H 17.172 16.511 33.194
H 16.814 14.718 33.008
C 19.329 13.941 31.77 
H 20.044 14.156 32.535
H 19.844 13.923 30.83 
C 18.772 12.589 32.131
H 17.764 12.606 31.726
H 18.9   12.537 33.206
C 19.622 11.418 31.644
H 20.45  11.336 32.35 
H 20.139 11.768 30.754
C 18.725 10.208 31.236
H 18.041 10.553 30.477
C 18.013  9.817 32.574
H 18.771  9.792 33.417
H 17.254 10.526 32.895
H 17.537  8.803 32.518
C 19.512  8.988 30.622
H 20.306  9.406 29.984
H 19.955  8.257 31.263
H 18.836  8.452 30.005
