137

Mg 27.198 33.385 32.797
C 25.332 32.468 35.486
C 24.228 33.741 31.018
H 23.265 33.883 30.481
C 28.921 34.581 30.097
H 29.505 34.869 29.203
C 30.03  33.309 34.688
H 30.876 33.158 35.275
N 25.039 33.259 33.227
C 24.511 32.856 34.446
C 22.938 32.941 34.421
H 22.515 32.018 34.767
C 22.697 33.116 32.93 
H 21.967 33.945 32.833
C 24.079 33.445 32.336
C 22.062 31.808 32.264
H 22.717 30.941 32.373
H 21.164 31.567 32.866
H 21.885 31.895 31.167
C 22.28  33.957 35.305
H 22.767 34.909 35.19 
H 22.533 33.72  36.357
C 20.737 34.099 35.244
H 20.378 33.548 34.411
H 20.315 33.715 36.194
C 20.234 35.478 35.164
O 20.667 36.428 35.816
O 19.25  35.69  34.266
N 26.717 34.025 30.804
C 25.45  34.012 30.31 
C 25.459 34.283 28.899
C 26.775 34.578 28.543
C 27.553 34.339 29.814
C 24.253 34.247 27.955
H 24.344 34.993 27.216
H 24.231 33.198 27.652
H 23.445 34.473 28.626
C 27.443 34.973 27.278
H 28.367 35.511 27.302
C 27.077 34.639 25.993
H 26.197 34.109 25.856
H 27.628 34.934 25.051
N 29.121 33.928 32.488
C 29.627 34.358 31.294
C 31.068 34.484 31.432
C 31.445 34.201 32.703
C 30.173 33.725 33.37 
C 31.932 34.776 30.242
H 31.99  35.861 30.077
H 32.907 34.474 30.458
H 31.499 34.134 29.38 
C 32.801 34.427 33.312
H 33.298 33.477 33.553
H 33.409 34.948 32.547
C 32.646 35.463 34.447
H 32.512 36.373 33.943
H 31.805 35.125 35.074
H 33.517 35.533 35.008
N 27.648 33.027 34.714
C 28.876 32.989 35.381
C 28.685 32.429 36.7  
C 27.332 32.113 36.707
C 26.725 32.589 35.59 
C 29.702 32.146 37.773
H 30.143 31.125 37.72 
H 30.54  32.796 37.715
H 29.307 32.209 38.772
C 26.306 31.502 37.514
O 26.389 31.009 38.63 
C 24.922 31.789 36.792
H 24.287 32.403 37.352
C 24.232 30.429 36.44 
O 24.492 29.75  35.499
O 23.089 30.297 37.217
C 22.336 29.113 36.815
H 22.137 29.082 35.731
H 22.892 28.228 37.208
H 21.364 29.2   37.323
C 18.594 36.989 34.347
H 19.363 37.743 34.081
H 18.277 37.273 35.37 
C 17.434 37.015 33.475
H 17.669 36.991 32.387
C 16.156 37.343 33.808
C 15.626 37.518 35.215
H 16.262 37.193 35.971
H 15.404 38.528 35.326
H 14.708 36.904 35.223
C 15.035 37.404 32.827
H 15.41  37.816 31.844
H 14.286 38.162 33.147
C 14.296 36.056 32.397
H 14.292 35.329 33.168
H 14.752 35.607 31.54 
C 12.801 36.15  32.083
H 12.507 37.153 32.176
H 12.387 35.69  32.938
C 12.266 35.55  30.736
H 12.998 35.712 29.973
C 10.887 36.098 30.443
H 10.189 35.792 31.165
H 10.924 37.211 30.48 
H 10.554 35.761 29.472
C 12.199 34.037 30.818
H 13.271 33.695 30.898
H 11.753 33.616 29.871
C 11.387 33.283 31.88 
H 10.945 32.374 31.415
H 10.49  33.928 32.149
C 12.172 32.728 33.104
H 11.573 33.066 33.946
H 13.192 33.128 33.148
C 12.324 31.155 33.237
H 11.368 30.664 33.204
C 13.026 30.817 34.626
H 13.095 29.813 34.958
H 14.069 31.171 34.587
H 12.622 31.397 35.492
C 13.167 30.643 32.031
H 14.215 30.961 32.062
H 12.721 30.835 31.072
C 13.328 29.114 32.   
H 12.614 28.578 32.629
H 14.303 28.841 32.384
C 13.092 28.572 30.615
H 13.862 27.886 30.527
H 13.224 29.306 29.836
C 11.763 27.758 30.42 
H 11.868 26.932 31.14 
C 11.822 27.169 29.003
H 10.806 26.857 28.716
H 12.159 27.939 28.273
H 12.531 26.373 29.124
C 10.537 28.626 30.717
H  9.749 27.86  30.852
H 10.583 29.321 31.532
H 10.447 29.271 29.861
