137

Mg 29.091 28.398 43.16 
C 25.816 29.409 43.778
C 28.144 27.276 40.056
H 27.818 26.761 39.101
C 32.288 27.77  42.532
H 33.328 27.55  42.265
C 29.96  29.541 46.377
H 30.29  29.735 47.426
N 27.193 28.452 42.018
C 25.985 28.855 42.473
C 24.877 28.751 41.396
H 24.138 28.068 41.869
C 25.592 27.919 40.221
H 25.563 28.489 39.327
C 27.084 27.872 40.761
C 24.997 26.505 39.904
H 25.691 25.907 39.383
H 24.611 26.151 40.883
H 24.31  26.736 39.119
C 24.143 30.091 40.993
H 24.725 30.485 40.155
H 24.032 30.755 41.819
C 22.787 29.834 40.3  
H 22.421 28.776 40.286
H 22.066 30.392 40.848
C 22.668 30.277 38.866
O 22.709 31.445 38.576
O 22.46  29.2   38.048
N 30.048 27.611 41.525
C 29.526 27.28  40.263
C 30.645 26.794 39.437
C 31.811 26.932 40.165
C 31.416 27.52  41.483
C 30.43  26.176 38.061
H 29.564 26.487 37.555
H 31.205 26.544 37.44 
H 30.38  25.077 38.044
C 33.184 26.543 39.845
H 33.978 26.74  40.579
C 33.514 25.723 38.837
H 32.767 25.318 38.109
H 34.54  25.37  38.706
N 30.819 28.673 44.173
C 32.033 28.323 43.735
C 33.013 28.608 44.775
C 32.383 29.09  45.829
C 30.978 29.118 45.489
C 34.483 28.425 44.538
H 34.786 27.36  44.414
H 34.639 28.827 43.473
H 35.114 28.998 45.258
C 33.051 29.546 47.1  
H 32.408 29.21  47.91 
H 33.957 28.905 47.345
C 33.388 31.07  47.162
H 34.052 31.3   47.984
H 33.887 31.48  46.279
H 32.507 31.617 47.407
N 28.1   29.193 44.797
C 28.598 29.634 46.015
C 27.484 30.061 46.818
C 26.432 30.081 45.959
C 26.807 29.462 44.801
C 27.507 30.571 48.225
H 27.285 31.616 48.117
H 26.963 30.052 49.018
H 28.57  30.475 48.637
C 25.004 30.313 45.854
O 24.289 30.788 46.748
C 24.603 30.196 44.452
H 24.402 31.215 44.085
C 23.276 29.43  44.384
O 23.103 28.348 44.933
O 22.39  30.162 43.615
C 21.122 29.466 43.546
H 21.358 28.468 43.061
H 20.71  29.328 44.567
H 20.33  29.88  42.888
C 22.439 29.393 36.603
H 23.441 29.83  36.259
H 21.589 29.988 36.441
C 22.274 28.054 35.927
H 22.394 27.2   36.598
C 21.691 27.692 34.733
C 21.309 28.753 33.703
H 20.262 28.67  33.361
H 21.662 29.715 34.014
H 22.01  28.522 32.896
C 21.528 26.24  34.415
H 22.08  25.595 35.02 
H 21.972 26.062 33.451
C 20.14  25.695 34.335
H 19.512 26.475 33.819
H 19.687 25.481 35.305
C 20.094 24.475 33.41 
H 21.002 23.861 33.554
H 20.022 24.808 32.384
C 18.925 23.577 33.663
H 18.883 23.21  34.646
C 19.064 22.229 32.95 
H 18.178 21.619 33.16 
H 19.045 22.482 31.884
H 19.931 21.646 33.199
C 17.535 24.283 33.47 
H 17.538 25.121 34.251
H 16.874 23.515 33.939
C 17.061 24.746 32.055
H 17.791 24.603 31.266
H 17.036 25.844 32.242
C 15.721 24.252 31.676
H 15.508 23.343 32.239
H 15.9   24.024 30.678
C 14.502 25.312 31.894
H 14.861 26.143 31.251
C 14.265 25.784 33.359
H 15.169 26.329 33.613
H 13.477 26.52  33.413
H 14.135 25.041 34.206
C 13.203 24.748 31.216
H 12.857 23.879 31.833
H 13.544 24.424 30.259
C 12.042 25.757 30.96 
H 11.691 25.762 29.888
H 12.488 26.733 31.203
C 10.887 25.52  31.968
H 10.984 24.643 32.615
H 10.047 25.281 31.337
C 10.403 26.66  32.894
H 11.145 27.083 33.553
C  9.159 26.352 33.719
H  9.373 25.599 34.487
H  8.931 27.243 34.332
H  8.326 26.034 33.09 
C 10.051 27.847 31.961
H 10.939 28.403 31.604
H  9.418 27.621 31.079
H  9.459 28.63  32.469
