137

Mg 24.606 30.917 34.895
C 23.177 31.177 38.049
C 21.577 31.691 33.555
H 20.549 31.903 33.175
C 26.074 31.173 31.976
H 26.617 31.209 30.984
C 27.549 30.023 36.392
H 28.444 29.58  36.806
N 22.638 31.216 35.699
C 22.235 31.359 36.997
C 20.775 31.783 37.111
H 20.374 31.087 37.932
C 20.246 31.607 35.676
H 19.581 32.406 35.378
C 21.587 31.591 34.949
C 19.424 30.321 35.421
H 20.106 29.544 35.633
H 18.558 30.162 36.099
H 19.138 30.217 34.371
C 20.563 33.299 37.594
H 20.972 34.083 36.953
H 21.203 33.438 38.456
C 19.059 33.606 37.918
H 18.415 33.028 37.259
H 19.041 33.08  38.879
C 18.584 35.03  38.208
O 18.694 35.792 39.181
O 17.937 35.352 37.073
N 23.909 31.361 33.052
C 22.644 31.676 32.672
C 22.641 31.915 31.229
C 23.904 31.626 30.8  
C 24.709 31.458 31.985
C 21.336 32.147 30.528
H 20.715 31.231 30.563
H 20.667 32.826 31.078
H 21.593 32.471 29.523
C 24.456 31.551 29.463
H 25.287 30.844 29.344
C 24.146 32.339 28.408
H 23.466 33.157 28.577
H 24.727 32.367 27.489
N 26.46  30.604 34.282
C 26.926 30.815 33.054
C 28.36  30.537 32.908
C 28.765 30.124 34.205
C 27.561 30.259 35.036
C 29.197 30.547 31.634
H 29.038 29.559 31.142
H 28.925 31.375 31.006
H 30.272 30.616 31.793
C 30.108 29.537 34.713
H 29.924 28.613 35.231
H 30.648 29.183 33.894
C 30.931 30.543 35.702
H 30.384 30.672 36.622
H 31.951 30.212 35.911
H 31.03  31.51  35.101
N 25.3   30.641 36.745
C 26.481 30.219 37.232
C 26.396 30.099 38.702
C 25.143 30.436 39.097
C 24.503 30.773 37.847
C 27.438 29.624 39.605
H 28.392 30.194 39.523
H 27.03  29.709 40.611
H 27.681 28.609 39.356
C 24.239 30.785 40.213
O 24.385 30.855 41.416
C 22.941 31.264 39.547
H 22.755 32.309 39.86 
C 21.934 30.265 40.102
O 21.718 29.064 39.825
O 21.184 30.938 40.979
C 20.011 30.121 41.475
H 19.391 30.818 42.075
H 19.379 29.916 40.527
H 20.344 29.258 41.979
C 17.438 36.716 37.058
H 18.1   37.24  36.352
H 17.594 37.345 37.867
C 15.975 36.767 36.62 
H 15.612 37.683 36.144
C 15.015 35.874 36.571
C 15.069 34.438 37.1  
H 14.124 34.241 37.681
H 15.235 33.692 36.281
H 15.773 34.256 37.933
C 13.764 36.209 35.838
H 13.67  37.311 35.894
H 12.888 35.77  36.381
C 13.879 35.894 34.321
H 13.004 35.314 34.101
H 14.705 35.273 34.139
C 13.852 37.171 33.411
H 14.201 38.073 34.017
H 12.809 37.399 33.037
C 14.662 37.01  32.047
H 15.727 37.217 32.234
C 14.359 38.321 31.17 
H 15.085 38.352 30.332
H 13.327 38.188 30.728
H 14.481 39.156 31.701
C 14.394 35.567 31.329
H 14.778 34.802 32.029
H 15.012 35.454 30.457
C 12.991 35.25  30.861
H 12.916 35.194 29.725
H 12.499 36.19  31.074
C 12.305 34.047 31.648
H 11.597 34.498 32.367
H 12.982 33.434 32.225
C 11.62  32.982 30.742
H 11.108 33.535 29.926
C 10.479 32.254 31.471
H  9.891 31.812 30.706
H 10.879 31.462 32.069
H  9.791 32.848 32.094
C 12.687 32.05  30.047
H 13.152 31.307 30.719
H 13.527 32.667 29.68 
C 12.005 31.254 28.819
H 10.914 31.43  28.853
H 12.332 30.212 28.964
C 12.56  31.706 27.372
H 13.082 30.855 26.932
H 13.32  32.451 27.368
C 11.495 32.128 26.327
H 10.843 31.274 26.131
C 12.093 32.414 24.941
H 11.289 32.359 24.191
H 12.56  33.396 25.009
H 12.817 31.592 24.584
C 10.719 33.38  26.866
H  9.981 33.806 26.232
H 10.22  33.114 27.81 
H 11.483 34.213 27.017
