137

Mg 34.644 30.974 35.366
C 31.239 30.749 35.1  
C 34.956 28.625 33.013
H 35.046 27.848 32.254
C 38.01  31.52  35.278
H 39.074 31.753 35.335
C 34.316 33.417 37.711
H 34.193 34.207 38.416
N 33.286 29.808 34.203
C 31.918 29.929 34.211
C 31.314 29.137 33.027
H 30.444 28.625 33.499
C 32.479 28.136 32.68 
H 32.626 28.068 31.644
C 33.643 28.859 33.313
C 32.351 26.703 33.206
H 31.382 26.256 32.903
H 33.188 26.093 32.968
H 32.209 26.743 34.297
C 30.97  30.006 31.71 
H 31.855 30.291 31.184
H 30.42  30.867 32.106
C 30.056 29.226 30.703
H 30.513 29.268 29.732
H 29.825 28.178 31.056
C 28.731 29.818 30.399
O 28.517 30.38  29.343
O 27.844 29.688 31.403
N 36.223 30.19  34.391
C 36.111 29.106 33.545
C 37.446 28.689 33.166
C 38.382 29.591 33.751
C 37.506 30.553 34.47 
C 37.622 27.612 32.113
H 38.664 27.247 31.934
H 37.005 26.803 32.491
H 37.181 28.029 31.223
C 39.851 29.675 33.538
H 40.417 30.09  34.347
C 40.432 29.358 32.377
H 39.856 29.012 31.554
H 41.496 29.504 32.105
N 35.91  32.363 36.182
C 37.269 32.459 35.958
C 37.829 33.599 36.72 
C 36.719 34.204 37.268
C 35.573 33.321 37.093
C 39.211 34.018 36.765
H 39.756 33.305 37.461
H 39.682 33.819 35.803
H 39.302 35.009 37.144
C 36.678 35.513 38.026
H 36.395 35.366 39.082
H 37.599 36.07  38.042
C 35.829 36.563 37.278
H 34.856 36.198 37.078
H 35.771 37.414 37.954
H 36.258 36.803 36.308
N 33.172 31.768 36.386
C 33.125 32.732 37.344
C 31.78  32.931 37.83 
C 31.018 32.257 36.86 
C 31.864 31.505 36.036
C 31.221 33.788 38.902
H 30.28  33.339 39.185
H 31.92  33.89  39.774
H 31.095 34.808 38.424
C 29.665 32.015 36.487
O 28.551 32.354 36.844
C 29.756 31.014 35.249
H 29.258 31.558 34.403
C 28.932 29.909 35.644
O 29.209 29.188 36.594
O 27.851 29.718 34.798
C 27.082 28.478 35.095
H 26.47  28.471 36.027
H 26.428 28.357 34.239
H 27.738 27.599 35.107
C 26.562 30.38  31.239
H 25.889 29.749 30.583
H 26.707 31.316 30.742
C 25.996 30.653 32.592
H 26.774 31.016 33.309
C 24.776 30.396 33.185
C 23.634 29.769 32.473
H 23.788 29.527 31.413
H 23.266 28.871 32.978
H 22.756 30.35  32.517
C 24.586 30.637 34.709
H 25.638 30.779 35.085
H 24.119 29.771 35.187
C 23.951 32.038 34.965
H 23.892 32.647 34.012
H 24.63  32.558 35.636
C 22.531 31.977 35.643
H 22.587 32.307 36.673
H 22.219 30.929 35.646
C 21.292 32.634 34.938
H 21.377 32.315 33.907
C 21.493 34.164 34.826
H 21.484 34.552 35.859
H 22.42  34.425 34.46 
H 20.723 34.757 34.284
C 19.916 32.212 35.519
H 19.204 32.715 34.962
H 19.918 32.512 36.515
C 19.463 30.718 35.413
H 19.792 30.051 36.163
H 19.76  30.386 34.422
C 17.989 30.363 35.401
H 17.948 29.345 35.652
H 17.651 30.542 34.408
C 17.063 31.186 36.4  
H 17.135 32.239 36.075
C 17.544 30.942 37.858
H 17.352 29.914 38.115
H 18.631 31.136 37.869
H 16.902 31.634 38.393
C 15.588 30.641 36.27 
H 15.104 31.212 37.065
H 15.538 29.58  36.562
C 14.934 30.878 34.927
H 15.586 31.538 34.388
H 13.98  31.318 35.096
C 14.73  29.543 34.122
H 15.345 28.821 34.539
H 15.023 29.806 33.117
C 13.243 29.038 34.033
H 12.71  29.71  33.434
C 12.57  28.892 35.387
H 11.626 28.416 35.22 
H 13.26  28.265 35.946
H 12.441 29.896 35.846
C 13.115 27.729 33.235
H 12.046 27.66  32.954
H 13.686 27.843 32.271
H 13.554 26.851 33.779
