137

Mg 27.906 29.413 31.541
C 26.695 26.319 30.637
C 29.79  29.498 28.752
H 30.287 29.495 27.773
C 29.459 32.211 32.748
H 29.884 33.184 33.064
C 26.007 29.29  34.446
H 25.406 29.345 35.309
N 28.119 28.091 29.857
C 27.553 26.845 29.692
C 27.781 26.286 28.201
H 28.041 25.265 28.222
C 28.997 27.16  27.788
H 28.774 27.563 26.821
C 28.926 28.378 28.838
C 30.385 26.341 27.797
H 30.691 26.002 28.807
H 30.294 25.496 27.1  
H 31.21  26.919 27.422
C 26.599 26.618 27.268
H 26.421 27.741 27.145
H 25.757 26.307 27.764
C 26.585 25.974 25.924
H 25.99  26.402 25.167
H 27.591 26.01  25.516
C 26.311 24.455 25.786
O 26.896 23.673 25.063
O 25.188 24.117 26.424
N 29.378 30.707 30.78 
C 30.042 30.589 29.64 
C 30.976 31.735 29.476
C 30.805 32.481 30.662
C 29.893 31.842 31.471
C 31.864 31.922 28.355
H 31.746 32.958 27.983
H 32.807 31.703 28.772
H 31.666 31.218 27.594
C 31.418 33.79  30.97 
H 30.959 34.506 31.672
C 32.522 34.207 30.364
H 33.185 33.584 29.75 
H 32.919 35.169 30.742
N 27.754 30.538 33.371
C 28.485 31.64  33.633
C 27.963 32.236 34.879
C 26.964 31.459 35.33 
C 26.945 30.346 34.41 
C 28.48  33.54  35.484
H 27.532 33.985 35.659
H 28.97  33.435 36.437
H 29.02  34.126 34.771
C 26.09  31.702 36.615
H 26.133 30.831 37.29 
H 26.617 32.389 37.232
C 24.625 32.269 36.357
H 24.687 33.256 35.865
H 23.975 31.507 35.885
H 24.281 32.405 37.414
N 26.597 28.132 32.418
C 25.802 28.242 33.528
C 24.852 27.142 33.59 
C 25.214 26.382 32.494
C 26.301 26.961 31.795
C 23.752 26.958 34.561
H 23.428 26.05  34.185
H 24.225 26.785 35.525
H 23.015 27.791 34.403
C 24.875 25.2   31.734
O 23.925 24.466 31.877
C 25.895 25.065 30.524
H 25.465 24.986 29.531
C 26.689 23.807 30.85 
O 27.434 23.622 31.825
O 26.747 22.965 29.763
C 27.719 21.9   29.918
H 28.748 22.242 29.915
H 27.436 21.345 30.831
H 27.601 21.161 29.153
C 24.886 22.727 26.527
H 25.65  22.139 26.982
H 24.792 22.33  25.512
C 23.577 22.688 27.222
H 22.745 23.284 26.791
C 23.239 22.043 28.337
C 24.225 21.059 29.079
H 24.269 21.418 30.114
H 23.825 20.036 29.073
H 25.23  20.923 28.676
C 21.797 22.086 28.777
H 21.416 23.093 28.772
H 21.759 21.711 29.785
C 20.9   21.189 27.912
H 20.283 20.53  28.535
H 21.585 20.532 27.4  
C 20.158 21.898 26.748
H 20.567 21.749 25.771
H 20.206 22.9   26.952
C 18.623 21.601 26.559
H 18.632 20.535 26.413
C 18.009 22.308 25.33 
H 17.895 23.364 25.422
H 18.556 22.152 24.432
H 17.062 21.866 25.191
C 17.64  21.87  27.796
H 17.957 21.2   28.52 
H 16.582 21.614 27.496
C 17.594 23.251 28.47 
H 16.54  23.608 28.321
H 18.232 23.821 27.844
C 17.986 23.457 29.971
H 18.787 24.262 30.016
H 18.539 22.471 30.257
C 16.867 23.823 30.947
H 16.375 24.602 30.447
C 17.449 24.407 32.314
H 17.695 23.567 32.905
H 18.358 25.038 32.25 
H 16.699 24.903 32.929
C 15.855 22.663 31.101
H 16.482 21.883 31.382
H 15.359 22.404 30.131
C 14.779 22.87  32.216
H 13.812 22.627 31.76 
H 14.781 23.947 32.448
C 14.926 22.065 33.509
H 15.736 21.384 33.417
H 14.041 21.496 33.467
C 15.173 22.969 34.789
H 16.017 23.606 34.685
C 15.634 22.133 35.994
H 15.485 22.624 36.948
H 15.    21.266 36.08 
H 16.689 21.777 35.849
C 14.013 23.782 35.121
H 13.168 23.098 35.283
H 14.252 24.414 35.98 
H 13.711 24.453 34.319
