137

Mg 21.297 17.262 25.475
C 23.708 17.375 22.902
C 23.605 18.703 27.482
H 24.261 19.265 28.121
C 19.135 16.718 27.985
H 18.437 16.55  28.776
C 19.388 15.341 23.397
H 18.759 14.663 22.915
N 23.286 18.147 25.199
C 24.093 18.14  24.067
C 25.346 18.936 24.242
H 26.159 18.342 23.938
C 25.404 19.106 25.856
H 25.342 20.186 26.043
C 23.993 18.593 26.195
C 26.57  18.397 26.627
H 26.562 17.324 26.263
H 27.521 18.885 26.429
H 26.34  18.332 27.677
C 25.227 20.24  23.38 
H 24.31  20.726 23.706
H 25.068 19.987 22.367
C 26.35  21.329 23.354
H 26.886 21.293 24.354
H 27.08  21.05  22.646
C 25.906 22.762 23.046
O 26.263 23.445 22.084
O 25.131 23.278 24.089
N 21.308 17.74  27.446
C 22.348 18.384 28.096
C 21.967 18.547 29.482
C 20.619 18.154 29.607
C 20.296 17.496 28.41 
C 22.877 19.154 30.576
H 23.873 19.348 30.149
H 22.404 20.071 30.912
H 22.937 18.405 31.322
C 19.773 18.014 30.8  
H 18.86  17.35  30.727
C 19.971 18.641 31.977
H 20.861 19.236 32.204
H 19.275 18.522 32.803
N 19.579 16.226 25.64 
C 18.827 16.115 26.766
C 17.684 15.285 26.612
C 17.715 14.93  25.252
C 18.865 15.512 24.66 
C 16.665 14.857 27.627
H 15.888 14.192 27.27 
H 17.286 14.488 28.498
H 16.183 15.809 27.911
C 16.65  14.07  24.493
H 17.129 13.164 24.113
H 15.932 13.726 25.206
C 15.894 14.758 23.317
H 15.601 15.797 23.725
H 16.549 14.703 22.52 
H 14.959 14.26  23.103
N 21.326 16.664 23.458
C 20.505 15.825 22.769
C 20.983 15.659 21.379
C 22.22  16.282 21.442
C 22.433 16.786 22.745
C 20.412 14.877 20.167
H 21.098 14.862 19.3  
H 20.287 13.83  20.471
H 19.517 15.273 19.8  
C 23.381 16.521 20.64 
O 23.545 16.32  19.426
C 24.447 17.057 21.592
H 24.926 17.838 21.045
C 25.54  16.038 21.885
O 25.406 15.007 22.447
O 26.77  16.613 21.601
C 27.952 15.878 21.934
H 27.884 14.86  21.591
H 28.825 16.23  21.39 
H 28.074 15.863 23.066
C 24.56  24.603 23.849
H 24.029 24.793 22.878
H 25.401 25.358 24.038
C 23.441 24.796 24.839
H 22.729 23.926 24.864
C 23.194 25.801 25.729
C 24.053 27.    25.903
H 24.466 26.903 26.946
H 24.938 26.97  25.354
H 23.476 27.932 25.666
C 21.869 25.736 26.412
H 21.665 24.683 26.666
H 21.222 26.227 25.639
C 21.645 26.505 27.671
H 22.428 27.141 28.059
H 21.503 25.784 28.473
C 20.327 27.322 27.651
H 19.682 26.947 28.405
H 19.853 27.192 26.728
C 20.482 28.849 27.898
H 21.289 29.368 27.292
C 20.549 29.241 29.457
H 20.265 30.293 29.62 
H 19.821 28.637 29.995
H 21.571 29.06  29.865
C 19.146 29.497 27.441
H 19.098 30.512 27.833
H 18.429 28.997 28.022
C 18.802 29.472 25.955
H 18.089 28.653 25.905
H 19.709 29.212 25.34 
C 18.395 30.798 25.276
H 18.884 30.67  24.299
H 18.897 31.659 25.672
C 16.891 30.951 24.999
H 16.724 30.055 24.422
C 16.683 32.143 24.06 
H 17.065 33.083 24.571
H 17.175 32.053 23.11 
H 15.634 32.324 23.864
C 16.139 31.054 26.316
H 16.682 31.848 26.84 
H 16.249 30.161 26.922
C 14.694 31.458 26.239
H 14.201 31.077 25.33 
H 14.593 32.506 26.213
C 13.95  30.9   27.438
H 14.595 30.678 28.2  
H 13.581 29.869 27.118
C 12.779 31.741 28.016
H 12.93  32.853 28.073
C 12.179 31.383 29.366
H 12.955 31.287 30.1  
H 11.231 31.913 29.553
H 11.889 30.293 29.181
C 11.708 31.858 26.959
H 12.163 32.069 25.948
H 11.161 30.887 27.012
H 11.055 32.686 27.271
