137

Mg 30.4   29.261 34.504
C 29.454 28.696 37.774
C 27.266 28.278 33.655
H 26.312 27.932 33.313
C 31.133 29.985 31.367
H 31.343 30.324 30.341
C 33.585 30.058 35.466
H 34.652 30.292 35.751
N 28.637 28.455 35.588
C 28.405 28.461 36.904
C 26.961 28.053 37.288
H 27.151 27.102 37.773
C 26.376 27.558 35.941
H 25.532 28.082 35.663
C 27.5   28.098 34.994
C 26.026 26.077 35.795
H 26.072 25.791 34.78 
H 26.633 25.397 36.363
H 25.01  26.135 36.167
C 26.236 29.211 38.059
H 26.156 30.032 37.351
H 26.95  29.612 38.813
C 24.872 28.724 38.611
H 24.811 27.709 38.262
H 24.878 28.859 39.688
C 23.689 29.42  38.227
O 23.209 30.375 38.915
O 23.145 28.964 37.041
N 29.368 29.189 32.758
C 28.079 28.693 32.602
C 27.751 28.726 31.193
C 28.882 29.115 30.492
C 29.827 29.464 31.535
C 26.391 28.523 30.605
H 25.681 28.607 31.404
H 26.169 29.355 29.959
H 26.261 27.532 30.12 
C 29.049 29.33  29.002
H 28.18  29.591 28.42 
C 30.16  29.104 28.368
H 31.102 28.697 28.83 
H 30.303 29.368 27.272
N 32.031 30.034 33.578
C 32.093 30.302 32.252
C 33.39  30.886 31.9  
C 34.083 30.911 33.135
C 33.241 30.294 34.16 
C 33.814 31.461 30.62 
H 34.083 32.514 30.857
H 34.631 30.937 30.054
H 32.943 31.505 30.034
C 35.464 31.58  33.298
H 36.08  30.848 33.874
H 35.936 31.843 32.364
C 35.297 32.856 34.135
H 36.28  33.166 34.554
H 34.791 33.594 33.44 
H 34.658 32.664 35.016
N 31.411 29.337 36.237
C 32.724 29.601 36.541
C 32.992 29.441 37.969
C 31.714 29.12  38.463
C 30.744 29.125 37.459
C 34.271 29.638 38.725
H 34.342 30.681 39.132
H 34.3   28.947 39.504
H 35.16  29.46  38.095
C 31.012 28.848 39.669
O 31.412 28.761 40.808
C 29.562 28.461 39.252
H 28.807 28.969 39.808
C 29.581 27.023 39.667
O 30.175 26.115 39.02 
O 28.884 26.754 40.875
C 28.949 25.436 41.483
H 29.934 25.332 41.913
H 28.329 25.491 42.428
H 28.616 24.612 40.777
C 22.111 29.691 36.428
H 22.33  30.766 36.414
H 21.25  29.416 36.979
C 22.011 29.231 35.047
H 22.546 28.264 34.896
C 21.397 29.702 33.887
C 20.468 30.881 33.872
H 20.345 31.165 34.925
H 20.886 31.752 33.477
H 19.497 30.504 33.493
C 21.491 28.977 32.576
H 22.362 28.366 32.523
H 21.592 29.679 31.749
C 20.359 28.014 32.336
H 19.617 28.168 33.065
H 20.67  26.998 32.535
C 19.692 28.052 30.928
H 20.193 27.349 30.333
H 19.815 29.036 30.436
C 18.138 27.777 30.832
H 17.759 27.511 31.856
C 17.721 26.547 29.911
H 17.911 25.603 30.376
H 16.649 26.659 29.735
H 18.155 26.655 28.944
C 17.368 29.051 30.419
H 17.842 29.862 31.024
H 16.283 28.942 30.725
C 17.369 29.527 29.012
H 17.759 28.661 28.467
H 18.104 30.337 28.956
C 16.084 30.058 28.42 
H 15.212 29.765 28.972
H 15.973 29.489 27.525
C 16.035 31.607 28.066
H 17.037 31.876 27.794
C 15.771 32.471 29.34 
H 14.796 32.214 29.673
H 16.44  32.224 30.129
H 15.761 33.544 29.051
C 15.037 31.878 26.952
H 14.076 32.075 27.363
H 15.052 30.979 26.289
C 15.545 32.955 25.932
H 15.742 32.505 24.95 
H 16.535 33.329 26.143
C 14.501 34.065 25.602
H 13.529 33.794 25.957
H 14.438 34.087 24.549
C 14.804 35.423 26.402
H 15.302 35.131 27.342
C 13.483 36.185 26.732
H 12.682 35.55  27.188
H 13.596 36.916 27.536
H 13.121 36.702 25.842
C 15.851 36.252 25.693
H 16.205 37.029 26.34 
H 16.671 35.589 25.382
H 15.436 36.644 24.792
