137

Mg 30.357 33.101 34.4  
C 28.118 32.377 36.939
C 27.839 33.351 32.215
H 27.061 33.21  31.429
C 32.618 34.357 32.091
H 33.129 34.842 31.252
C 32.81  33.533 36.868
H 33.596 33.351 37.541
N 28.258 32.805 34.531
C 27.498 32.419 35.683
C 26.126 32.048 35.226
H 25.909 30.972 35.489
C 26.181 32.165 33.654
H 25.511 32.869 33.2  
C 27.5   32.845 33.446
C 25.963 30.833 32.85 
H 25.944 31.125 31.799
H 26.761 30.086 32.95 
H 24.978 30.315 33.076
C 24.919 32.756 35.955
H 25.046 33.807 35.824
H 24.984 32.572 36.985
C 23.6   32.258 35.31 
H 23.824 31.447 34.547
H 23.106 31.678 36.007
C 22.676 33.307 34.672
O 23.005 34.363 34.143
O 21.39  32.846 34.789
N 30.292 33.654 32.522
C 29.13  33.68  31.756
C 29.42  33.976 30.407
C 30.766 34.282 30.33 
C 31.3   34.067 31.695
C 28.407 34.056 29.339
H 29.    33.711 28.469
H 27.478 33.43  29.493
H 28.05  35.088 29.248
C 31.576 34.878 29.188
H 32.67  34.636 29.091
C 31.069 35.665 28.184
H 30.    35.971 28.264
H 31.642 36.138 27.395
N 32.396 33.817 34.469
C 33.091 34.288 33.338
C 34.386 34.655 33.769
C 34.523 34.313 35.115
C 33.21  33.902 35.541
C 35.379 35.327 32.924
H 35.832 36.188 33.434
H 36.138 34.521 32.712
H 34.965 35.717 31.993
C 35.795 34.437 35.874
H 35.841 33.511 36.506
H 36.7   34.598 35.285
C 35.714 35.615 36.914
H 36.782 35.724 37.233
H 35.395 36.64  36.543
H 35.044 35.373 37.762
N 30.545 32.862 36.424
C 31.577 33.035 37.28 
C 31.167 32.665 38.67 
C 29.765 32.356 38.57 
C 29.454 32.546 37.214
C 31.97  32.592 39.943
H 33.019 32.289 39.812
H 32.083 33.535 40.359
H 31.542 31.995 40.707
C 28.601 31.984 39.279
O 28.384 31.917 40.49 
C 27.514 31.889 38.274
H 26.652 32.391 38.692
C 27.302 30.426 38.15 
O 28.211 29.608 38.133
O 25.952 30.146 38.155
C 25.72  28.684 37.938
H 26.112 28.383 36.933
H 26.307 28.102 38.624
H 24.68  28.432 38.013
C 20.322 33.462 33.977
H 20.652 34.425 33.639
H 19.528 33.599 34.752
C 19.972 32.363 33.032
H 19.882 31.394 33.449
C 19.6   32.326 31.688
C 19.439 33.529 30.676
H 18.399 33.484 30.311
H 19.654 34.477 31.146
H 20.058 33.427 29.839
C 19.098 30.938 31.265
H 19.938 30.26  31.528
H 19.086 31.    30.208
C 17.763 30.437 31.862
H 17.496 30.891 32.796
H 18.15  29.378 31.872
C 16.592 30.666 30.839
H 16.845 31.56  30.169
H 15.681 30.919 31.303
C 16.278 29.484 29.801
H 16.284 28.51  30.334
C 17.388 29.231 28.737
H 18.435 29.134 29.167
H 17.162 28.24  28.395
H 17.297 29.982 27.956
C 14.789 29.703 29.274
H 14.129 29.797 30.058
H 14.591 28.802 28.76 
C 14.567 30.869 28.292
H 15.49  31.175 27.724
H 14.205 31.71  28.961
C 13.512 30.526 27.303
H 13.066 29.498 27.401
H 14.008 30.625 26.329
C 12.354 31.453 27.248
H 12.774 32.462 27.002
C 11.57  31.444 28.609
H 11.882 30.58  29.165
H 11.773 32.256 29.269
H 10.468 31.289 28.468
C 11.39  31.114 26.116
H 10.898 30.16  26.397
H 12.049 31.043 25.28 
C 10.282 32.182 25.804
H 10.496 32.655 24.753
H 10.331 32.998 26.545
C  8.874 31.549 25.811
H  8.932 30.5   25.998
H  8.527 31.48  24.774
C  7.816 32.215 26.67 
H  8.274 32.242 27.683
C  6.509 31.46  26.721
H  6.705 30.585 27.321
H  5.766 32.081 27.203
H  6.233 31.18  25.723
C  7.481 33.651 26.11 
H  8.308 34.287 26.321
H  7.195 33.595 25.069
H  6.676 34.026 26.607
