137

Mg 23.852 31.394 35.396
C 22.579 31.676 38.589
C 20.96  32.693 34.229
H 20.143 33.322 33.702
C 25.385 31.863 32.531
H 25.891 32.127 31.553
C 26.71  30.214 36.838
H 27.528 29.606 37.185
N 21.942 32.088 36.306
C 21.693 32.084 37.628
C 20.252 32.585 37.891
H 19.789 31.773 38.518
C 19.662 32.645 36.462
H 19.279 33.684 36.287
C 20.905 32.464 35.596
C 18.51  31.651 36.19 
H 18.983 30.765 36.553
H 17.706 32.003 36.796
H 18.254 31.442 35.184
C 20.279 33.999 38.52 
H 20.677 34.663 37.805
H 21.006 34.001 39.383
C 18.887 34.516 38.959
H 18.13  33.825 38.721
H 18.876 34.705 39.983
C 18.55  35.877 38.378
O 19.352 36.775 38.282
O 17.354 35.862 37.746
N 23.257 32.076 33.61 
C 22.023 32.621 33.271
C 22.035 33.059 31.792
C 23.361 32.969 31.39 
C 24.063 32.282 32.546
C 20.864 33.439 31.035
H 19.886 33.042 31.397
H 20.698 34.536 30.98 
H 21.04  33.002 30.019
C 24.034 33.312 30.133
H 24.727 32.614 29.658
C 23.695 34.419 29.541
H 22.918 35.163 29.953
H 24.201 34.78  28.631
N 25.664 30.935 34.735
C 26.138 31.234 33.495
C 27.471 30.683 33.247
C 27.852 30.092 34.479
C 26.756 30.407 35.421
C 28.257 30.792 31.98 
H 29.292 30.477 32.109
H 27.719 30.338 31.159
H 28.392 31.891 31.863
C 29.083 29.229 34.728
H 28.981 28.777 35.71 
H 29.166 28.48  33.898
C 30.364 30.103 34.95 
H 30.256 30.746 35.788
H 31.25  29.486 35.055
H 30.555 30.558 33.992
N 24.538 31.051 37.291
C 25.717 30.551 37.71 
C 25.797 30.474 39.095
C 24.57  30.757 39.471
C 23.778 31.15  38.345
C 27.021 30.05  39.893
H 27.92  30.583 39.667
H 26.851 30.216 40.984
H 27.156 29.024 39.656
C 23.735 30.907 40.59 
O 23.938 30.62  41.779
C 22.325 31.504 40.111
H 22.149 32.435 40.617
C 21.292 30.556 40.58 
O 20.831 29.56  39.979
O 20.836 30.954 41.831
C 19.82  30.042 42.322
H 19.43  30.457 43.245
H 18.99  30.006 41.649
H 20.276 29.091 42.527
C 17.053 37.04  37.059
H 17.5   37.255 36.13 
H 17.119 37.886 37.725
C 15.616 36.845 36.658
H 15.257 37.825 36.276
C 14.638 35.854 36.664
C 14.737 34.451 37.254
H 14.699 34.432 38.318
H 14.037 33.781 36.902
H 15.653 34.112 36.919
C 13.269 36.151 36.159
H 13.072 37.209 36.103
H 12.508 35.74  36.887
C 13.038 35.62  34.717
H 12.376 34.78  34.737
H 14.015 35.356 34.323
C 12.365 36.57  33.664
H 12.164 37.517 34.143
H 11.396 36.198 33.379
C 13.157 36.901 32.397
H 14.153 37.215 32.686
C 12.553 38.132 31.518
H 13.347 38.436 30.814
H 11.717 37.845 30.978
H 12.394 39.062 32.167
C 13.479 35.638 31.559
H 14.059 34.962 32.136
H 14.164 35.971 30.745
C 12.385 34.892 30.884
H 12.683 34.768 29.863
H 11.587 35.578 30.88 
C 11.907 33.644 31.648
H 10.961 33.999 32.053
H 12.644 33.29  32.436
C 11.308 32.532 30.719
H 10.631 32.936 29.974
C 10.427 31.568 31.599
H  9.668 31.121 31.01 
H 11.069 30.861 32.128
H  9.808 32.152 32.275
C 12.42  31.843 29.916
H 12.931 31.346 30.715
H 13.005 32.63  29.596
C 11.934 30.983 28.715
H 10.881 31.126 28.487
H 11.975 29.931 29.017
C 12.702 31.2   27.353
H 12.993 30.214 27.013
H 13.534 31.872 27.598
C 11.832 31.716 26.247
H 11.106 30.943 26.033
C 12.407 31.872 24.863
H 11.704 32.513 24.429
H 13.36  32.415 24.829
H 12.529 30.874 24.426
C 11.189 33.077 26.683
H 10.147 33.213 26.227
H 11.074 33.226 27.771
H 11.933 33.807 26.378
