137

Mg 20.979 19.457 22.196
C 23.304 21.852 21.095
C 20.607 21.355 25.024
H 20.435 21.992 25.927
C 18.766 17.159 23.27 
H 17.921 16.564 23.612
C 21.514 17.656 19.284
H 21.698 16.851 18.55 
N 21.794 21.448 22.914
C 22.669 22.237 22.273
C 22.849 23.629 22.953
H 23.864 23.877 23.14 
C 22.03  23.355 24.253
H 21.234 24.031 24.412
C 21.468 21.961 24.053
C 22.937 23.449 25.555
H 23.38  24.436 25.57 
H 22.283 23.304 26.45 
H 23.735 22.7   25.56 
C 22.104 24.766 22.159
H 21.185 24.364 21.908
H 22.642 25.063 21.262
C 22.025 26.053 22.919
H 20.929 26.039 23.212
H 22.653 26.068 23.779
C 22.389 27.401 22.08 
O 23.298 27.395 21.271
O 21.602 28.472 22.408
N 19.895 19.286 23.863
C 19.928 20.113 24.983
C 19.081 19.555 26.035
C 18.478 18.412 25.436
C 19.075 18.217 24.123
C 18.795 20.246 27.39 
H 17.844 19.939 27.792
H 19.622 20.155 28.053
H 18.826 21.319 27.215
C 17.451 17.474 25.942
H 16.806 16.891 25.272
C 17.266 17.224 27.278
H 17.89  17.741 28.066
H 16.633 16.44  27.665
N 20.286 17.744 21.417
C 19.332 16.906 21.99 
C 18.974 15.755 21.096
C 19.908 15.889 20.087
C 20.612 17.169 20.224
C 17.964 14.689 21.291
H 17.07  14.947 21.943
H 17.676 14.588 20.27 
H 18.257 13.727 21.68 
C 20.161 14.883 18.947
H 21.249 14.649 18.907
H 19.691 13.941 19.196
C 19.585 15.32  17.596
H 20.063 14.705 16.876
H 18.518 15.173 17.478
H 19.839 16.33  17.332
N 22.128 19.675 20.519
C 22.264 18.863 19.379
C 23.349 19.374 18.497
C 23.762 20.538 19.082
C 23.023 20.674 20.344
C 23.752 18.602 17.283
H 24.784 18.749 17.108
H 23.636 17.491 17.372
H 23.279 19.006 16.337
C 24.639 21.685 18.974
O 25.497 21.952 18.113
C 24.363 22.556 20.221
H 23.94  23.465 19.824
C 25.746 22.776 20.846
O 26.356 21.866 21.403
O 26.071 24.086 20.794
C 27.488 24.403 20.947
H 27.898 23.944 21.823
H 27.987 23.934 20.161
H 27.589 25.535 20.986
C 21.945 29.706 21.766
H 21.636 29.467 20.712
H 23.049 29.906 21.802
C 21.051 30.862 22.264
H 20.055 30.83  21.866
C 21.357 31.781 23.19 
C 22.553 31.896 24.018
H 22.274 31.644 25.061
H 23.28  31.153 23.733
H 22.98  32.864 23.902
C 20.333 32.892 23.49 
H 20.122 32.848 24.596
H 19.435 32.639 23.014
C 20.885 34.362 23.119
H 21.825 34.322 22.639
H 21.084 34.863 24.125
C 19.859 35.053 22.159
H 19.177 34.25  21.851
H 20.397 35.348 21.246
C 19.    36.162 22.766
H 19.477 36.932 23.445
C 17.882 35.609 23.635
H 17.331 34.856 23.064
H 18.367 35.147 24.58 
H 17.21  36.328 24.018
C 18.233 36.986 21.624
H 17.434 37.609 22.118
H 17.707 36.36  20.949
C 19.193 37.861 20.818
H 19.243 37.501 19.792
H 20.219 37.761 21.275
C 18.902 39.362 20.808
H 19.891 39.836 20.724
H 18.441 39.58  21.808
C 18.013 39.791 19.6  
H 18.431 39.182 18.76 
C 18.21  41.277 19.311
H 17.535 41.729 18.543
H 17.978 41.922 20.149
H 19.213 41.439 19.035
C 16.561 39.354 19.68 
H 16.158 39.952 20.504
H 16.595 38.338 20.023
C 15.625 39.389 18.466
H 15.301 38.331 18.316
H 16.041 39.767 17.519
C 14.305 40.045 18.859
H 14.081 39.821 19.934
H 13.621 39.325 18.277
C 14.163 41.526 18.392
H 14.963 42.087 18.804
C 12.918 42.142 18.998
H 12.881 42.172 20.095
H 12.727 43.225 18.828
H 11.974 41.631 18.707
C 14.133 41.685 16.852
H 15.064 41.319 16.483
H 13.417 40.921 16.566
H 13.888 42.732 16.537
