137

Mg 30.4   29.321 39.   
C 27.057 29.131 40.06 
C 29.242 28.721 35.867
H 28.865 28.445 34.822
C 33.375 30.19  37.866
H 34.3   30.526 37.41 
C 31.397 29.944 42.149
H 31.733 30.011 43.184
N 28.462 28.993 38.137
C 27.23  28.954 38.762
C 26.084 28.719 37.778
H 25.395 28.019 38.195
C 26.826 28.158 36.56 
H 26.432 28.549 35.6  
C 28.285 28.683 36.86 
C 26.739 26.645 36.404
H 25.697 26.35  36.156
H 27.357 26.338 35.556
H 26.955 26.166 37.374
C 25.347 30.03  37.456
H 26.058 30.471 36.73 
H 25.51  30.747 38.279
C 23.864 29.873 37.004
H 23.599 28.989 37.523
H 23.395 30.782 37.403
C 23.654 29.748 35.546
O 23.53  30.712 34.836
O 23.713 28.492 35.08 
N 31.133 29.444 37.225
C 30.603 29.101 36.059
C 31.498 29.099 34.92 
C 32.701 29.609 35.489
C 32.406 29.775 36.933
C 31.246 28.69  33.491
H 30.778 27.718 33.425
H 30.501 29.344 32.993
H 32.137 28.729 32.892
C 33.972 30.001 34.879
H 34.867 29.772 35.413
C 34.068 30.665 33.729
H 33.287 31.05  33.082
H 35.102 30.864 33.399
N 32.174 29.937 39.84 
C 33.312 30.261 39.221
C 34.365 30.576 40.183
C 33.726 30.478 41.427
C 32.391 30.051 41.151
C 35.792 30.89  39.94 
H 36.402 30.018 40.061
H 35.781 31.312 38.938
H 36.107 31.734 40.596
C 34.429 30.656 42.705
H 34.281 29.751 43.281
H 35.503 30.863 42.646
C 33.871 31.845 43.48 
H 34.604 31.939 44.331
H 33.847 32.718 42.826
H 32.831 31.785 43.755
N 29.471 29.549 40.772
C 29.956 29.78  42.023
C 28.876 29.828 42.958
C 27.735 29.609 42.218
C 28.121 29.446 40.923
C 28.994 30.218 44.389
H 29.828 30.912 44.399
H 28.055 30.678 44.779
H 29.308 29.381 45.017
C 26.268 29.449 42.391
O 25.514 29.572 43.309
C 25.807 29.065 40.952
H 25.075 29.829 40.601
C 25.144 27.728 41.215
O 25.71  26.697 41.535
O 23.815 27.861 41.051
C 23.048 26.591 41.038
H 21.983 26.87  41.206
H 23.169 25.97  40.148
H 23.296 25.864 41.9  
C 23.362 28.511 33.628
H 24.044 29.122 32.968
H 22.383 28.89  33.492
C 23.383 27.024 33.352
H 24.262 26.586 33.843
C 22.549 26.177 32.799
C 21.279 26.53  32.061
H 21.311 27.591 31.917
H 21.334 26.019 31.08 
H 20.375 26.241 32.612
C 22.963 24.651 32.869
H 24.003 24.612 33.221
H 22.947 24.217 31.875
C 22.008 23.895 33.84 
H 21.256 24.604 34.16 
H 22.618 23.619 34.691
C 21.394 22.689 33.161
H 22.123 21.961 33.133
H 21.038 22.955 32.163
C 20.153 22.02  33.86 
H 20.514 21.65  34.785
C 19.646 20.74  33.04 
H 18.618 20.488 33.344
H 19.698 20.903 31.967
H 20.293 19.955 33.429
C 18.992 22.937 34.303
H 19.498 23.571 35.042
H 18.254 22.397 34.917
C 18.352 23.871 33.206
H 18.897 23.764 32.265
H 18.496 24.834 33.591
C 16.859 23.489 33.054
H 16.683 22.655 33.718
H 16.625 23.208 32.05 
C 15.965 24.672 33.486
H 16.366 25.517 32.98 
C 16.    24.905 34.995
H 15.656 24.023 35.594
H 17.126 25.084 35.347
H 15.396 25.73  35.428
C 14.549 24.422 32.925
H 14.208 23.429 33.226
H 14.471 24.359 31.796
C 13.607 25.657 33.175
H 13.943 26.223 34.011
H 12.668 25.346 33.553
C 13.33  26.457 31.831
H 13.604 25.938 30.934
H 13.94  27.435 31.797
C 11.853 26.907 31.696
H 11.184 26.06  31.685
C 11.474 27.588 30.37 
H 11.867 26.985 29.506
H 10.409 27.637 30.254
H 11.822 28.624 30.251
C 11.518 27.864 32.802
H 11.459 27.207 33.663
H 12.317 28.622 32.913
H 10.515 28.358 32.756
