137

Mg 27.575 25.622 43.232
C 24.155 24.86  43.502
C 27.436 24.778 39.943
H 27.503 24.658 38.87 
C 30.798 26.611 42.963
H 31.768 27.089 42.929
C 27.553 26.318 46.659
H 27.548 26.491 47.682
N 25.922 25.084 41.855
C 24.604 24.895 42.16 
C 23.79  24.535 40.899
H 23.37  23.546 41.039
C 24.853 24.486 39.848
H 24.623 25.247 39.081
C 26.182 24.766 40.555
C 24.922 23.096 39.116
H 25.789 23.09  38.442
H 25.057 22.186 39.754
H 24.125 23.003 38.401
C 22.631 25.608 40.663
H 23.133 26.507 40.307
H 22.121 25.765 41.62 
C 21.495 25.227 39.663
H 21.573 24.209 39.275
H 20.539 25.168 40.196
C 21.179 26.221 38.573
O 21.87  27.18  38.261
O 19.917 25.951 38.085
N 28.946 25.577 41.713
C 28.722 25.174 40.476
C 29.939 25.386 39.602
C 30.857 26.013 40.457
C 30.183 26.112 41.762
C 30.099 25.014 38.126
H 31.13  24.692 37.984
H 29.458 24.213 37.813
H 29.885 25.866 37.507
C 32.263 26.417 40.314
H 32.967 26.563 41.137
C 32.789 26.849 39.148
H 32.093 27.022 38.335
H 33.82  27.295 39.068
N 28.96  26.299 44.526
C 30.228 26.655 44.245
C 30.942 26.956 45.536
C 29.91  27.01  46.449
C 28.728 26.576 45.872
C 32.383 27.348 45.604
H 32.41  28.193 46.214
H 32.956 26.64  46.169
H 32.858 27.471 44.616
C 30.065 27.378 47.912
H 29.505 26.602 48.488
H 31.11  27.36  48.163
C 29.433 28.746 48.319
H 30.116 29.548 48.259
H 28.49  28.887 47.861
H 29.284 28.571 49.377
N 26.126 25.743 44.735
C 26.262 26.007 46.118
C 25.075 25.647 46.865
C 24.193 25.278 45.827
C 24.881 25.251 44.601
C 24.802 25.824 48.284
H 24.253 26.744 48.47 
H 24.157 25.015 48.534
H 25.69  25.782 48.886
C 22.907 24.823 45.544
O 21.939 24.754 46.326
C 22.792 24.473 44.07 
H 21.935 24.997 43.683
C 22.455 23.067 43.951
O 22.905 22.217 44.678
O 21.642 22.874 42.837
C 21.293 21.463 42.692
H 22.141 20.864 42.306
H 20.879 20.965 43.555
H 20.577 21.363 41.884
C 19.458 27.024 37.166
H 20.156 27.202 36.359
H 19.337 27.988 37.7  
C 18.132 26.598 36.551
H 18.279 25.875 35.732
C 16.889 27.053 36.708
C 16.466 28.027 37.821
H 15.813 27.654 38.539
H 17.343 28.485 38.335
H 15.945 28.728 37.25 
C 15.76  26.491 35.856
H 16.228 25.936 35.011
H 15.235 27.37  35.402
C 14.788 25.513 36.633
H 13.858 26.027 36.728
H 15.203 25.359 37.646
C 14.676 24.11  35.914
H 14.859 23.416 36.7  
H 15.413 23.946 35.146
C 13.257 23.672 35.373
H 12.547 23.52  36.197
C 13.277 22.263 34.766
H 12.206 22.075 34.516
H 13.913 22.16  33.898
H 13.496 21.545 35.532
C 12.49  24.675 34.397
H 12.149 25.561 34.915
H 11.483 24.215 34.115
C 13.304 25.315 33.223
H 14.183 24.761 33.197
H 13.487 26.363 33.456
C 12.476 25.197 31.905
H 12.316 26.19  31.498
H 11.449 24.865 32.033
C 13.213 24.56  30.655
H 13.403 23.509 30.996
C 14.575 25.33  30.382
H 14.375 26.294 29.99 
H 15.291 25.38  31.223
H 15.118 24.724 29.65 
C 12.276 24.425 29.42 
H 12.307 25.321 28.821
H 11.254 24.293 29.784
C 12.52  23.154 28.536
H 11.666 22.558 28.516
H 13.368 22.592 28.834
C 12.882 23.506 26.978
H 13.727 22.893 26.65 
H 13.22  24.542 27.002
C 11.694 23.371 25.863
H 10.971 24.096 26.076
C 10.894 22.047 25.892
H 10.251 22.215 26.757
H 10.273 21.961 25.035
H 11.606 21.234 26.022
C 12.284 23.696 24.464
H 11.443 23.858 23.732
H 12.747 24.708 24.547
H 12.957 22.881 24.123
