137

Mg 22.641 17.432 30.408
C 25.317 16.287 28.49 
C 23.388 20.669 29.396
H 23.637 21.687 29.154
C 19.795 18.376 31.642
H 18.828 18.729 32.054
C 21.873 14.071 31.032
H 21.623 13.021 31.158
N 24.244 18.306 29.22 
C 25.253 17.692 28.525
C 26.168 18.693 27.774
H 27.19  18.632 28.043
C 25.546 20.048 28.293
H 25.05  20.66  27.574
C 24.328 19.689 29.071
C 26.523 21.062 28.948
H 27.388 21.292 28.309
H 25.923 21.981 29.08 
H 26.98  20.815 29.898
C 26.047 18.63  26.164
H 24.941 18.555 26.103
H 26.609 17.744 25.798
C 26.503 19.8   25.279
H 27.243 20.447 25.797
H 27.095 19.42  24.506
C 25.552 20.648 24.58 
O 24.958 20.369 23.534
O 25.325 21.892 25.244
N 21.794 19.238 30.524
C 22.176 20.431 30.056
C 21.16  21.451 30.35 
C 20.192 20.776 31.107
C 20.595 19.431 31.139
C 21.291 22.979 29.974
H 20.595 23.208 29.21 
H 21.037 23.608 30.823
H 22.288 23.179 29.641
C 18.949 21.266 31.7  
H 18.411 20.623 32.463
C 18.262 22.362 31.224
H 18.595 22.892 30.394
H 17.246 22.753 31.63 
N 21.149 16.475 31.35 
C 20.056 17.039 31.806
C 19.161 16.066 32.427
C 19.841 14.817 32.375
C 21.039 15.103 31.562
C 17.716 16.401 32.971
H 16.909 15.944 32.321
H 17.632 16.243 34.051
H 17.492 17.463 32.907
C 19.424 13.482 32.906
H 18.998 12.833 32.198
H 20.358 12.912 33.151
C 18.651 13.409 34.248
H 17.65  13.866 34.075
H 18.492 12.41  34.623
H 19.114 13.982 35.049
N 23.417 15.593 29.958
C 22.985 14.271 30.283
C 23.81  13.289 29.66 
C 24.793 14.038 28.984
C 24.497 15.399 29.191
C 23.588 11.883 29.62 
H 22.735 11.609 28.938
H 24.473 11.289 29.427
H 23.323 11.722 30.646
C 25.879 13.909 28.104
O 26.452 13.008 27.581
C 26.319 15.368 27.804
H 26.307 15.509 26.732
C 27.639 15.687 28.323
O 27.931 15.918 29.52 
O 28.638 15.615 27.306
C 29.935 16.165 27.772
H 29.816 17.232 27.988
H 30.212 15.716 28.74 
H 30.814 16.099 27.087
C 24.504 22.831 24.474
H 23.665 22.225 24.03 
H 25.034 23.336 23.608
C 24.195 23.96  25.467
H 25.04  24.329 25.93 
C 22.977 24.34  25.886
C 21.68  23.723 25.382
H 21.589 22.698 25.702
H 20.846 24.273 25.752
H 21.661 23.727 24.295
C 22.996 25.426 27.   
H 23.975 25.96  27.071
H 22.754 24.874 27.924
C 22.067 26.614 26.722
H 21.651 26.583 25.697
H 22.765 27.511 26.65 
C 21.028 27.002 27.816
H 21.102 26.269 28.571
H 20.087 26.798 27.352
C 21.304 28.472 28.376
H 21.417 29.146 27.627
C 22.672 28.465 29.103
H 22.646 27.519 29.722
H 23.52  28.649 28.511
H 22.67  29.306 29.858
C 20.12  28.947 29.289
H 20.4   29.973 29.582
H 20.021 28.253 30.132
C 18.756 29.014 28.538
H 18.28  28.124 28.867
H 18.972 28.926 27.431
C 17.939 30.26  28.81 
H 18.439 30.998 29.46 
H 17.129 29.753 29.345
C 17.18  30.9   27.539
H 16.922 29.979 26.959
C 18.252 31.75  26.661
H 18.801 32.543 27.141
H 18.879 31.066 26.124
H 17.73  32.198 25.901
C 15.921 31.697 27.826
H 16.198 32.644 28.393
H 15.362 31.113 28.537
C 15.013 32.015 26.628
H 15.618 31.887 25.694
H 14.7   33.018 26.66 
C 13.846 31.039 26.506
H 13.65  30.61  27.436
H 14.039 30.269 25.737
C 12.535 31.724 26.001
H 12.5   32.712 26.508
C 11.378 30.796 26.459
H 10.439 31.144 26.13 
H 11.45  29.733 26.122
H 11.288 30.837 27.531
C 12.45  32.212 24.504
H 12.769 31.419 23.779
H 11.378 32.357 24.337
H 13.02  33.145 24.306
