137

Mg 20.141 25.921 28.07 
C 23.539 25.445 28.583
C 20.423 29.062 29.555
H 20.419 30.099 29.992
C 17.023 26.41  27.459
H 15.97  26.545 27.434
C 20.176 22.993 26.248
H 20.127 22.011 25.823
N 21.778 27.126 29.032
C 23.097 26.715 29.046
C 24.037 27.806 29.642
H 24.529 27.427 30.559
C 22.971 28.85  30.106
H 23.062 29.778 29.57 
C 21.647 28.369 29.496
C 22.885 28.883 31.63 
H 23.839 29.185 32.162
H 22.085 29.635 31.91 
H 22.543 27.871 31.902
C 25.083 28.363 28.687
H 24.603 28.905 27.865
H 25.54  27.517 28.248
C 26.121 29.274 29.38 
H 25.785 29.801 30.293
H 27.074 28.732 29.472
C 26.699 30.369 28.46 
O 27.713 30.267 27.811
O 26.056 31.544 28.624
N 18.904 27.521 28.421
C 19.162 28.652 29.109
C 17.954 29.466 29.084
C 16.993 28.805 28.218
C 17.625 27.564 27.971
C 17.807 30.724 29.806
H 17.708 30.646 30.864
H 18.602 31.49  29.585
H 16.922 31.137 29.438
C 15.609 29.202 27.788
H 14.877 29.702 28.492
C 15.232 29.014 26.509
H 15.863 28.501 25.705
H 14.265 29.395 26.093
N 18.815 24.936 27.09 
C 17.508 25.24  27.063
C 16.698 24.264 26.291
C 17.633 23.26  25.919
C 18.963 23.674 26.473
C 15.202 24.351 26.153
H 14.745 23.553 25.664
H 14.925 24.404 27.196
H 14.967 25.322 25.711
C 17.419 21.869 25.316
H 18.079 21.116 25.797
H 16.407 21.501 25.542
C 17.701 21.815 23.814
H 18.742 22.017 23.594
H 17.601 20.757 23.459
H 17.162 22.442 23.182
N 21.534 24.575 27.356
C 21.422 23.365 26.728
C 22.628 22.648 26.648
C 23.464 23.41  27.445
C 22.771 24.561 27.869
C 22.904 21.288 26.085
H 22.318 21.232 25.146
H 23.959 21.196 25.799
H 22.62  20.499 26.855
C 24.795 23.442 27.878
O 25.789 22.714 27.73 
C 24.946 24.869 28.672
H 25.534 25.408 27.988
C 25.568 24.601 30.056
O 25.369 23.734 30.897
O 26.429 25.678 30.184
C 26.88  25.82  31.593
H 27.299 26.791 31.69 
H 26.035 25.735 32.297
H 27.564 25.018 31.765
C 26.639 32.665 27.966
H 26.608 32.513 26.91 
H 27.535 32.97  28.491
C 25.824 33.964 28.136
H 25.45  34.158 29.214
C 25.266 34.778 27.234
C 25.628 34.833 25.796
H 25.819 35.916 25.566
H 26.513 34.161 25.48 
H 24.806 34.498 25.232
C 24.161 35.776 27.705
H 23.471 35.214 28.287
H 23.631 36.139 26.834
C 24.588 36.944 28.591
H 25.681 36.887 28.661
H 24.32  36.783 29.66 
C 24.348 38.42  28.158
H 23.963 38.45  27.157
H 25.316 38.83  28.077
C 23.248 39.334 28.839
H 23.473 39.482 29.863
C 21.815 38.7   28.914
H 21.656 38.166 27.968
H 21.907 38.039 29.713
H 20.991 39.433 28.961
C 23.229 40.784 28.227
H 22.315 41.246 28.603
H 23.126 40.705 27.161
C 24.433 41.679 28.615
H 25.357 41.451 28.07 
H 24.699 41.475 29.652
C 23.956 43.189 28.445
H 24.273 43.555 29.448
H 22.861 43.371 28.317
C 24.66  44.008 27.355
H 25.722 43.851 27.641
C 24.424 45.552 27.525
H 24.306 45.732 28.597
H 25.322 46.089 27.066
H 23.586 45.918 27.01 
C 24.31  43.501 25.953
H 23.275 43.524 25.702
H 24.579 42.438 25.788
C 24.988 44.305 24.796
H 25.508 43.556 24.214
H 25.637 45.065 25.058
C 24.05  44.991 23.785
H 24.042 46.07  23.993
H 23.029 44.772 24.027
C 24.159 44.746 22.194
H 24.119 43.643 22.021
C 25.557 45.15  21.613
H 26.441 44.869 22.172
H 25.646 44.67  20.636
H 25.558 46.247 21.452
C 22.992 45.346 21.451
H 23.183 46.373 21.277
H 22.776 44.989 20.441
H 22.055 45.201 22.062
