137

Mg 23.327 26.725 39.897
C 20.67  24.664 39.945
C 24.38  25.136 37.104
H 24.525 24.802 36.101
C 25.789 29.099 39.486
H 26.519 29.895 39.373
C 22.222 28.401 42.794
H 21.903 28.945 43.674
N 22.728 25.044 38.767
C 21.527 24.378 38.917
C 21.202 23.381 37.757
H 21.016 22.383 38.214
C 22.544 23.474 37.   
H 22.501 23.728 35.969
C 23.291 24.62  37.716
C 23.22  22.108 37.148
H 23.188 21.774 38.196
H 22.718 21.369 36.515
H 24.282 22.287 36.808
C 20.06  23.832 36.8  
H 20.242 24.899 36.72 
H 19.007 23.773 37.263
C 19.952 23.139 35.426
H 20.746 22.418 35.392
H 19.075 22.554 35.44 
C 19.873 23.992 34.177
O 20.224 25.192 34.047
O 19.385 23.201 33.166
N 24.879 26.997 38.512
C 25.229 26.178 37.475
C 26.449 26.663 36.806
C 26.795 27.78  37.536
C 25.838 27.98  38.58 
C 27.063 26.084 35.569
H 28.171 25.86  35.76 
H 26.667 25.124 35.569
H 26.814 26.744 34.748
C 27.836 28.841 37.231
H 28.196 29.396 38.125
C 28.212 29.265 36.018
H 27.85  28.722 35.146
H 28.9   30.048 35.813
N 23.922 28.496 40.971
C 24.957 29.337 40.57 
C 25.017 30.39  41.569
C 23.961 30.26  42.464
C 23.309 29.028 42.08 
C 26.064 31.431 41.608
H 25.797 32.376 41.074
H 26.389 31.774 42.648
H 27.002 31.04  41.147
C 23.561 31.067 43.615
H 23.697 30.608 44.561
H 24.22  31.935 43.581
C 22.172 31.682 43.355
H 21.923 32.286 44.288
H 22.291 32.33  42.439
H 21.435 30.945 43.132
N 21.885 26.557 41.132
C 21.483 27.271 42.283
C 20.262 26.739 42.853
C 19.93  25.733 41.917
C 20.915 25.595 40.904
C 19.424 27.247 44.088
H 18.668 26.558 44.428
H 20.085 27.465 44.924
H 19.04  28.2   43.798
C 18.855 24.871 41.529
O 17.783 24.708 42.069
C 19.368 24.121 40.218
H 18.546 24.427 39.568
C 19.244 22.679 40.574
O 19.723 22.033 41.506
O 18.541 22.084 39.525
C 18.166 20.708 39.761
H 17.393 20.588 40.5  
H 17.728 20.137 38.9  
H 18.978 20.055 39.859
C 19.559 23.795 31.841
H 20.671 23.831 31.707
H 19.096 24.727 31.749
C 19.128 22.795 30.784
H 19.86  21.955 30.741
C 18.067 22.857 29.987
C 17.006 24.018 30.025
H 16.7   24.257 28.977
H 16.126 23.745 30.59 
H 17.362 25.027 30.41 
C 17.923 21.809 28.993
H 18.952 21.596 28.594
H 17.377 22.18  28.133
C 17.571 20.41  29.546
H 17.22  20.48  30.604
H 18.514 19.842 29.457
C 16.536 19.714 28.657
H 16.154 20.413 27.993
H 15.661 19.27  29.224
C 16.963 18.579 27.74 
H 17.912 18.813 27.382
C 16.096 18.458 26.451
H 15.12  18.183 26.844
H 16.044 19.407 25.903
H 16.31  17.661 25.75 
C 17.137 17.234 28.421
H 17.655 17.415 29.354
H 17.674 16.565 27.801
C 15.893 16.429 28.788
H 15.037 17.081 28.828
H 16.04  15.968 29.799
C 15.675 15.23  27.761
H 15.668 14.243 28.175
H 16.365 15.3   26.908
C 14.387 15.24  26.874
H 14.281 16.214 26.453
C 13.188 14.903 27.758
H 12.334 15.128 27.039
H 13.222 13.834 28.069
H 13.013 15.552 28.61 
C 14.467 14.257 25.648
H 13.481 14.296 25.206
H 14.736 13.263 25.957
C 15.369 14.581 24.461
H 16.328 14.013 24.651
H 15.527 15.684 24.401
C 14.871 14.11  23.113
H 14.692 14.922 22.449
H 13.888 13.652 23.221
C 15.81  13.165 22.334
H 16.801 13.673 22.23 
C 15.251 13.034 20.906
H 14.287 12.507 20.889
H 15.159 14.061 20.563
H 16.017 12.465 20.39 
C 15.828 11.759 22.968
H 16.174 11.864 24.012
H 14.806 11.384 22.934
H 16.442 11.095 22.382
