137

Mg 22.223 20.491 26.392
C 22.513 19.286 23.073
C 25.463 21.587 26.183
H 26.474 22.049 26.211
C 22.161 21.282 29.629
H 22.11  21.519 30.663
C 19.176 18.907 26.564
H 18.22  18.438 26.517
N 23.738 20.484 24.77 
C 23.701 19.966 23.519
C 24.854 20.467 22.594
H 25.4   19.632 22.158
C 25.822 21.029 23.647
H 26.151 21.917 23.264
C 24.934 21.085 24.947
C 27.072 20.147 23.834
H 26.659 19.166 24.106
H 27.702 19.995 22.935
H 27.711 20.417 24.715
C 24.339 21.492 21.518
H 23.912 22.299 22.082
H 23.559 20.949 20.946
C 25.445 21.892 20.567
H 26.342 21.32  20.731
H 25.074 21.657 19.591
C 25.852 23.358 20.597
O 26.95  23.73  20.344
O 24.852 24.31  20.872
N 23.588 21.351 27.636
C 24.87  21.716 27.411
C 25.47  22.32  28.609
C 24.549 22.277 29.62 
C 23.405 21.59  28.971
C 26.864 23.013 28.469
H 26.986 23.643 27.582
H 27.094 23.603 29.374
H 27.561 22.185 28.36 
C 24.645 22.676 31.034
H 23.714 22.96  31.432
C 25.735 22.65  31.862
H 26.744 22.287 31.567
H 25.724 23.058 32.876
N 20.897 20.111 27.901
C 21.024 20.54  29.213
C 19.794 20.167 29.938
C 18.971 19.577 29.   
C 19.644 19.539 27.74 
C 19.491 20.676 31.341
H 20.066 20.094 32.021
H 19.895 21.671 31.487
H 18.447 20.594 31.641
C 17.566 19.135 29.371
H 17.577 18.057 29.235
H 17.317 19.331 30.391
C 16.472 19.714 28.494
H 15.552 19.193 28.664
H 16.387 20.729 28.784
H 16.699 19.723 27.355
N 21.065 19.236 25.123
C 19.865 18.619 25.352
C 19.431 17.957 24.194
C 20.416 18.159 23.25 
C 21.436 18.942 23.874
C 18.159 17.253 24.058
H 18.172 16.426 24.802
H 17.341 17.957 24.353
H 18.084 16.936 23.044
C 20.819 17.967 21.937
O 20.375 17.307 20.999
C 22.243 18.64  21.748
H 22.231 19.295 20.857
C 23.039 17.506 21.418
O 23.262 16.56  22.146
O 23.601 17.618 20.136
C 24.494 16.572 19.691
H 25.419 16.556 20.267
H 23.991 15.611 19.745
H 24.754 16.685 18.624
C 25.127 25.688 20.605
H 25.159 25.658 19.52 
H 26.046 25.999 20.999
C 24.041 26.416 21.403
H 24.136 26.416 22.516
C 22.962 27.159 20.977
C 22.557 27.526 19.537
H 23.438 27.51  18.906
H 21.873 26.783 19.11 
H 21.933 28.413 19.568
C 22.091 27.828 22.079
H 22.099 27.271 23.056
H 21.064 27.872 21.79 
C 22.577 29.275 22.434
H 21.845 30.031 22.626
H 23.235 29.698 21.692
C 23.344 29.344 23.752
H 23.643 28.384 24.152
H 22.734 29.674 24.592
C 24.741 30.102 23.695
H 24.534 31.143 23.424
C 25.724 29.39  22.688
H 25.833 28.358 22.809
H 25.396 29.555 21.61 
H 26.708 29.795 22.901
C 25.279 30.259 25.093
H 26.372 30.495 24.976
H 25.231 29.237 25.489
C 24.777 31.324 26.085
H 23.782 31.576 25.819
H 25.379 32.216 26.094
C 24.815 30.742 27.505
H 25.653 31.311 28.038
H 25.095 29.654 27.439
C 23.581 31.027 28.412
H 22.718 30.607 27.829
C 23.323 32.501 28.67 
H 23.298 33.049 27.736
H 22.408 32.602 29.221
H 24.178 32.906 29.209
C 23.779 30.293 29.763
H 24.737 30.581 30.221
H 23.73  29.262 29.336
C 22.692 30.454 30.873
H 21.772 30.922 30.525
H 23.085 31.217 31.612
C 22.282 29.17  31.547
H 23.022 28.449 31.381
H 21.35  28.848 31.031
C 21.849 29.138 33.06 
H 22.593 29.745 33.528
C 21.939 27.702 33.712
H 21.637 27.721 34.781
H 21.208 27.004 33.298
H 22.891 27.29  33.425
C 20.45  29.722 33.249
H 19.662 29.096 32.693
H 20.321 30.072 34.319
H 20.485 30.662 32.641
