137

Mg 26.576 32.769 33.234
C 25.731 31.349 36.254
C 23.317 32.494 32.28 
H 22.34  32.419 31.867
C 27.306 34.398 30.429
H 27.548 34.871 29.488
C 29.774 33.333 34.397
H 30.701 33.487 34.966
N 24.779 31.946 34.147
C 24.675 31.44  35.399
C 23.19  30.863 35.724
H 23.306 29.815 35.928
C 22.419 31.158 34.394
H 21.694 31.909 34.548
C 23.572 31.925 33.519
C 21.657 30.01  33.755
H 22.311 29.263 33.364
H 21.026 29.579 34.57 
H 20.993 30.25  32.971
C 22.586 31.58  36.95 
H 22.212 32.547 36.573
H 23.367 31.791 37.57 
C 21.461 30.812 37.683
H 20.983 30.06  37.024
H 22.106 30.259 38.389
C 20.423 31.553 38.547
O 20.303 31.369 39.726
O 19.742 32.523 37.888
N 25.49  33.432 31.644
C 24.176 33.207 31.461
C 23.769 33.741 30.148
C 24.919 34.187 29.549
C 25.966 34.055 30.521
C 22.329 33.696 29.6  
H 22.178 34.286 28.682
H 22.003 32.679 29.404
H 21.753 34.102 30.426
C 25.116 34.909 28.274
H 25.982 35.566 28.205
C 24.363 34.907 27.126
H 23.416 34.419 27.014
H 24.706 35.486 26.299
N 28.346 33.604 32.493
C 28.392 34.257 31.27 
C 29.771 34.74  31.041
C 30.41  34.629 32.245
C 29.53  33.795 33.101
C 30.279 35.364 29.798
H 29.982 34.644 29.073
H 29.77  36.261 29.507
H 31.295 35.543 29.888
C 31.815 35.166 32.639
H 32.305 34.338 33.158
H 32.432 35.464 31.681
C 31.696 36.356 33.641
H 30.944 36.226 34.435
H 32.694 36.469 34.077
H 31.415 37.248 33.033
N 27.59  32.49  34.964
C 28.898 32.683 35.306
C 29.141 32.118 36.623
C 27.931 31.56  37.028
C 26.994 31.89  36.025
C 30.385 32.192 37.375
H 30.667 33.251 37.659
H 30.305 31.606 38.32 
H 31.083 31.681 36.855
C 27.259 30.848 38.103
O 27.629 30.38  39.18 
C 25.759 30.77  37.735
H 25.261 31.317 38.469
C 25.355 29.368 37.839
O 25.453 28.616 36.875
O 24.676 29.047 38.972
C 24.162 27.682 38.922
H 23.54  27.504 38.036
H 24.979 27.012 38.717
H 23.652 27.265 39.813
C 18.88  33.394 38.718
H 19.506 33.934 39.412
H 18.239 32.784 39.276
C 18.312 34.282 37.611
H 18.993 34.545 36.78 
C 17.05  34.701 37.487
C 15.79  34.02  38.168
H 15.097 33.737 37.43 
H 16.074 33.23  38.751
H 15.404 34.714 38.837
C 16.704 35.731 36.397
H 17.552 36.451 36.233
H 15.91  36.357 36.842
C 16.421 35.221 35.015
H 16.149 34.139 35.167
H 17.14  35.418 34.186
C 15.126 35.759 34.53 
H 15.256 36.801 34.161
H 14.453 35.823 35.381
C 14.536 34.809 33.375
H 15.394 34.556 32.672
C 13.575 35.573 32.427
H 13.28  34.942 31.54 
H 12.7   35.932 32.936
H 14.142 36.503 32.196
C 13.965 33.422 33.74 
H 14.725 32.847 34.248
H 13.764 32.958 32.737
C 12.647 33.372 34.611
H 11.705 33.491 34.003
H 12.664 34.215 35.343
C 12.518 32.035 35.356
H 12.381 32.359 36.369
H 13.499 31.486 35.348
C 11.358 31.111 34.877
H 10.468 31.671 34.791
C 11.054 29.926 35.851
H 10.72  30.292 36.865
H 10.253 29.295 35.385
H 11.939 29.264 35.96 
C 11.67  30.5   33.476
H 12.412 29.698 33.577
H 12.114 31.287 32.932
C 10.481 29.99  32.627
H  9.57  30.254 33.18 
H 10.502 28.894 32.691
C 10.36  30.456 31.119
H 10.095 29.594 30.473
H 11.395 30.758 30.822
C  9.47  31.695 30.94 
H  8.536 31.457 31.371
C  9.224 31.987 29.426
H  8.453 32.717 29.307
H 10.176 32.335 29.033
H  9.003 31.098 28.959
C 10.058 33.052 31.538
H  9.308 33.849 31.356
H 10.081 33.059 32.567
H 10.989 33.348 31.094
