137

Mg 29.406 30.45  33.617
C 28.337 27.251 32.957
C 29.889 30.794 30.167
H 29.956 30.944 29.089
C 30.497 33.518 34.176
H 30.879 34.527 34.276
C 29.065 29.878 36.997
H 29.116 29.796 38.1  
N 29.115 29.161 31.805
C 28.637 27.917 31.758
C 28.399 27.479 30.325
H 28.86  26.586 30.127
C 28.981 28.638 29.443
H 28.209 29.032 28.803
C 29.337 29.577 30.543
C 30.154 28.057 28.541
H 30.936 27.53  29.219
H 29.731 27.234 27.911
H 30.675 28.8   27.896
C 26.927 27.262 29.994
H 26.482 28.162 30.005
H 26.536 26.683 30.813
C 26.608 26.555 28.652
H 26.175 27.383 28.092
H 27.521 26.213 28.142
C 25.73  25.369 28.645
O 26.051 24.228 28.403
O 24.468 25.703 28.912
N 30.074 31.9   32.414
C 30.136 31.892 31.06 
C 30.723 33.061 30.577
C 30.796 33.946 31.718
C 30.492 33.113 32.898
C 30.936 33.313 29.092
H 31.111 34.335 28.921
H 31.729 32.67  28.693
H 30.03  33.054 28.543
C 31.43  35.349 31.752
H 32.295 35.526 31.165
C 31.055 36.362 32.512
H 30.246 36.3   33.19 
H 31.59  37.317 32.436
N 29.665 31.548 35.321
C 30.06  32.851 35.355
C 30.021 33.365 36.689
C 29.654 32.292 37.49 
C 29.503 31.129 36.599
C 30.375 34.758 37.134
H 29.585 35.521 37.175
H 30.991 34.618 38.015
H 30.979 35.065 36.299
C 29.543 32.266 38.984
H 30.088 31.419 39.447
H 29.969 33.108 39.414
C 28.099 32.079 39.357
H 27.505 32.828 38.893
H 27.804 31.034 39.061
H 27.921 32.159 40.422
N 28.851 28.971 34.792
C 28.682 28.867 36.131
C 28.207 27.577 36.497
C 28.157 26.916 35.325
C 28.498 27.816 34.277
C 28.036 27.063 37.948
H 28.998 26.975 38.45 
H 27.299 27.618 38.503
H 27.672 26.112 37.775
C 27.765 25.631 34.71 
O 27.337 24.618 35.272
C 27.882 25.835 33.154
H 26.945 25.653 32.628
C 28.964 24.853 32.743
O 30.18  25.045 32.741
O 28.282 23.788 32.12 
C 29.072 22.765 31.309
H 30.027 23.268 30.894
H 29.306 21.879 31.965
H 28.426 22.381 30.566
C 23.579 24.609 29.079
H 23.848 23.993 29.907
H 23.616 23.978 28.155
C 22.115 25.071 29.448
H 22.052 26.006 30.011
C 20.946 24.54  29.048
C 20.989 23.238 28.223
H 20.135 23.199 27.64 
H 21.874 22.981 27.642
H 20.926 22.44  28.927
C 19.635 25.146 29.65 
H 19.858 25.784 30.47 
H 19.112 24.293 30.097
C 18.79  25.849 28.552
H 18.831 25.263 27.667
H 19.176 26.865 28.319
C 17.409 26.331 29.032
H 17.416 27.313 29.425
H 17.06  25.738 29.903
C 16.185 26.381 28.006
H 16.656 26.996 27.225
C 15.107 27.3   28.535
H 14.752 26.802 29.417
H 15.574 28.224 28.87 
H 14.296 27.405 27.737
C 15.725 25.006 27.452
H 16.626 24.541 26.973
H 15.124 25.255 26.681
C 15.005 24.088 28.494
H 14.137 23.747 27.951
H 14.596 24.653 29.363
C 15.836 22.885 28.977
H 16.839 22.829 28.531
H 15.353 21.928 28.701
C 16.043 22.841 30.557
H 16.194 23.826 30.941
C 17.292 22.036 30.914
H 17.146 21.016 30.504
H 18.247 22.383 30.516
H 17.244 22.039 32.007
C 14.777 22.209 31.192
H 14.81  21.164 30.832
H 14.002 22.717 30.775
C 14.714 22.467 32.767
H 13.876 23.066 33.192
H 15.52  23.166 33.024
C 14.808 21.218 33.661
H 15.813 20.855 33.796
H 14.322 20.338 33.251
C 14.191 21.456 35.084
H 13.087 21.724 35.099
C 14.972 22.521 35.876
H 14.436 22.641 36.817
H 16.034 22.373 36.139
H 14.869 23.505 35.418
C 14.09  20.129 35.806
H 15.116 19.716 35.835
H 13.778 20.243 36.905
H 13.36  19.397 35.385
