137

Mg 36.229 34.725 36.34 
C 32.776 34.657 36.386
C 36.244 32.398 33.793
H 36.315 31.641 32.988
C 39.617 34.94  36.299
H 40.68  35.017 36.227
C 36.139 36.912 39.029
H 35.984 37.562 39.886
N 34.643 33.746 35.236
C 33.333 33.96  35.348
C 32.537 33.25  34.264
H 31.683 32.765 34.666
C 33.591 32.12  33.767
H 33.778 31.992 32.743
C 34.91  32.753 34.332
C 33.223 30.764 34.363
H 32.376 30.354 33.843
H 34.189 30.194 34.23 
H 33.09  30.953 35.456
C 32.019 34.197 33.186
H 32.771 34.768 32.687
H 31.268 34.74  33.687
C 31.132 33.407 32.17 
H 31.687 33.217 31.243
H 30.922 32.471 32.625
C 29.746 33.953 31.763
O 29.479 34.227 30.606
O 28.88  33.988 32.799
N 37.619 33.961 35.166
C 37.464 32.936 34.156
C 38.74  32.557 33.598
C 39.661 33.387 34.22 
C 38.973 34.15  35.272
C 39.046 31.434 32.561
H 39.125 31.829 31.572
H 39.927 30.892 32.839
H 38.345 30.636 32.639
C 41.105 33.494 33.995
H 41.746 33.545 34.888
C 41.635 33.537 32.729
H 40.973 33.382 31.874
H 42.763 33.428 32.531
N 37.703 35.788 37.449
C 38.998 35.708 37.304
C 39.668 36.583 38.218
C 38.68  37.337 38.858
C 37.436 36.721 38.436
C 41.182 36.788 38.419
H 41.44  37.826 38.336
H 41.664 36.171 39.229
H 41.604 36.355 37.454
C 38.825 38.591 39.701
H 38.372 38.442 40.712
H 39.85  38.928 39.773
C 37.986 39.826 39.178
H 38.071 40.59  39.935
H 38.361 40.206 38.204
H 36.969 39.488 39.14 
N 34.749 35.625 37.535
C 34.857 36.451 38.635
C 33.564 36.786 39.198
C 32.694 35.986 38.374
C 33.464 35.372 37.391
C 33.302 37.668 40.346
H 33.113 38.653 39.955
H 32.429 37.322 40.884
H 34.069 37.689 41.159
C 31.307 35.607 38.108
O 30.269 35.815 38.744
C 31.302 34.841 36.717
H 30.583 35.383 36.125
C 30.648 33.525 37.06 
O 31.172 32.728 37.844
O 29.371 33.418 36.491
C 28.696 32.202 36.938
H 28.532 32.115 38.026
H 27.686 32.296 36.549
H 29.151 31.285 36.581
C 27.461 34.227 32.523
H 26.98  33.336 32.132
H 27.391 34.964 31.786
C 26.952 34.68  33.85 
H 27.748 35.125 34.503
C 25.845 34.411 34.556
C 24.706 33.591 34.022
H 24.214 33.197 34.882
H 24.112 34.234 33.355
H 25.088 32.827 33.382
C 25.737 34.924 36.008
H 26.655 35.352 36.315
H 25.328 34.115 36.578
C 24.601 36.053 36.263
H 24.368 36.676 35.385
H 25.041 36.633 37.094
C 23.303 35.5   36.725
H 23.478 35.521 37.797
H 23.237 34.462 36.403
C 21.996 36.287 36.338
H 22.152 36.642 35.254
C 21.737 37.531 37.137
H 21.091 38.265 36.688
H 21.295 37.187 38.131
H 22.587 38.126 37.417
C 20.727 35.355 36.328
H 20.966 34.665 35.517
H 19.914 35.999 36.114
C 20.4   34.525 37.656
H 19.358 34.855 37.9  
H 20.982 34.932 38.449
C 20.501 32.951 37.497
H 21.02  32.732 36.587
H 19.539 32.519 37.379
C 21.264 32.229 38.617
H 20.918 32.693 39.543
C 22.843 32.484 38.64 
H 22.968 33.506 38.741
H 23.413 32.175 39.563
H 23.389 32.232 37.761
C 21.072 30.715 38.65 
H 21.754 30.247 39.414
H 21.45  30.322 37.692
C 19.644 30.344 38.88 
H 19.098 31.258 39.145
H 19.6   29.776 39.81 
C 18.981 29.486 37.791
H 18.8   28.518 38.214
H 19.68  29.406 36.983
C 17.57  29.939 37.343
H 17.756 30.858 36.808
C 16.577 30.415 38.524
H 15.655 30.657 38.111
H 16.523 29.672 39.313
H 16.919 31.295 39.103
C 16.939 28.948 36.316
H 16.065 29.418 35.875
H 17.774 28.759 35.508
H 16.725 27.961 36.668
