137

Mg 30.334 29.685 37.994
C 27.081 29.114 39.009
C 29.687 28.367 34.923
H 29.44  27.952 33.946
C 33.214 30.75  36.928
H 34.194 31.17  36.71 
C 30.948 31.033 41.081
H 31.051 31.471 42.037
N 28.569 28.945 37.051
C 27.342 28.784 37.627
C 26.325 28.192 36.692
H 25.904 27.32  37.213
C 27.229 27.739 35.5  
H 27.013 28.12  34.551
C 28.554 28.412 35.833
C 27.348 26.23  35.433
H 26.45  25.697 35.354
H 28.038 25.923 34.667
H 27.834 25.886 36.363
C 25.183 29.203 36.358
H 25.72  30.11  36.097
H 24.726 29.429 37.335
C 24.097 28.811 35.387
H 23.953 27.71  35.24 
H 23.182 29.141 35.872
C 23.939 29.566 34.06 
O 23.937 30.805 33.938
O 23.788 28.728 32.958
N 31.177 29.755 36.159
C 30.846 29.111 34.974
C 31.819 29.472 33.966
C 32.776 30.285 34.599
C 32.445 30.24  35.944
C 31.803 29.105 32.514
H 31.028 28.304 32.413
H 31.686 29.935 31.771
H 32.71  28.557 32.452
C 33.857 30.938 33.932
H 34.31  30.479 33.113
C 34.36  32.097 34.242
H 34.014 32.764 35.018
H 35.28  32.382 33.725
N 31.929 30.647 38.934
C 33.075 30.949 38.311
C 33.969 31.649 39.247
C 33.248 31.76  40.484
C 32.009 31.068 40.179
C 35.297 32.25  38.803
H 35.753 32.66  39.767
H 35.891 31.458 38.374
H 35.025 33.002 38.114
C 33.697 32.328 41.774
H 33.431 31.679 42.571
H 34.762 32.426 41.776
C 33.149 33.726 42.155
H 32.042 33.786 42.204
H 33.341 34.098 43.145
H 33.512 34.441 41.428
N 29.331 29.891 39.712
C 29.664 30.507 40.899
C 28.506 30.421 41.799
C 27.511 29.833 41.138
C 28.007 29.572 39.858
C 28.429 30.927 43.267
H 29.332 31.515 43.52 
H 27.721 31.718 43.28 
H 28.164 30.202 44.039
C 26.142 29.34  41.348
O 25.402 29.341 42.299
C 25.883 28.847 39.907
H 25.004 29.314 39.5  
C 25.571 27.361 40.05 
O 26.269 26.559 40.685
O 24.412 26.967 39.44 
C 24.058 25.554 39.574
H 23.821 25.377 40.629
H 23.09  25.382 39.09 
H 24.825 24.851 39.333
C 23.601 29.541 31.71 
H 24.508 30.135 31.591
H 22.774 30.174 31.82 
C 23.33  28.383 30.701
H 24.277 27.87  30.418
C 22.196 27.895 30.207
C 20.798 28.498 30.355
H 20.453 28.184 31.315
H 21.032 29.527 30.332
H 20.107 28.267 29.562
C 22.268 26.887 29.093
H 22.95  27.159 28.251
H 21.364 26.785 28.555
C 22.84  25.504 29.55 
H 23.026 25.515 30.694
H 23.824 25.259 29.072
C 21.815 24.347 29.214
H 22.357 23.644 28.569
H 21.019 24.756 28.636
C 21.266 23.638 30.527
H 22.035 23.298 31.176
C 20.377 22.418 30.037
H 20.094 21.911 30.941
H 19.454 22.719 29.546
H 20.825 21.713 29.358
C 20.41  24.397 31.541
H 21.111 25.053 32.114
H 19.996 23.682 32.356
C 19.301 25.257 30.994
H 19.328 25.232 29.894
H 19.527 26.316 31.136
C 17.89  24.842 31.382
H 17.911 23.76  31.551
H 17.176 25.04  30.54 
C 17.261 25.74  32.532
H 17.298 26.731 32.142
C 18.009 25.715 33.868
H 17.924 24.744 34.375
H 19.03  25.917 33.681
H 17.563 26.408 34.523
C 15.757 25.541 32.826
H 15.671 24.577 33.328
H 15.21  25.383 31.914
C 15.    26.754 33.449
H 14.145 27.029 32.833
H 15.771 27.53  33.521
C 14.377 26.421 34.806
H 14.398 25.354 35.019
H 13.314 26.656 34.821
C 14.925 27.224 36.017
H 15.983 27.029 36.007
C 14.182 26.749 37.305
H 14.565 25.735 37.39 
H 14.344 27.377 38.178
H 13.112 26.613 37.261
C 14.671 28.795 36.01 
H 14.855 29.205 34.997
H 13.664 28.919 36.309
H 15.316 29.453 36.654
