137

Mg 29.16  30.985 34.349
C 30.009 27.688 33.665
C 26.973 30.801 31.723
H 26.279 30.736 30.877
C 28.218 34.034 35.066
H 27.952 35.05  35.274
C 31.519 31.016 36.865
H 32.278 30.991 37.631
N 28.584 29.463 32.864
C 29.038 28.175 32.769
C 28.529 27.44  31.537
H 29.401 27.389 30.961
C 27.552 28.442 30.943
H 26.473 28.056 31.007
C 27.674 29.639 31.922
C 27.913 28.913 29.538
H 28.845 29.443 29.518
H 27.996 28.015 28.957
H 27.086 29.444 29.057
C 27.949 26.017 31.84 
H 27.131 26.149 32.487
H 28.711 25.357 32.232
C 27.421 25.33  30.59 
H 26.369 25.672 30.364
H 28.142 25.648 29.78 
C 27.498 23.8   30.591
O 28.481 23.124 30.241
O 26.248 23.332 30.963
N 27.791 32.189 33.52 
C 26.97  31.937 32.483
C 26.144 33.142 32.172
C 26.517 34.128 33.144
C 27.539 33.447 33.994
C 25.    33.166 31.264
H 24.489 32.253 31.525
H 24.427 34.07  31.327
H 25.311 33.051 30.196
C 26.012 35.566 33.38 
H 25.826 35.834 34.416
C 25.751 36.49  32.371
H 26.078 36.221 31.307
H 25.475 37.539 32.52 
N 29.812 32.334 35.666
C 29.321 33.579 35.777
C 30.093 34.323 36.84 
C 31.057 33.407 37.394
C 30.839 32.206 36.651
C 29.984 35.789 37.14 
H 30.94  36.262 37.268
H 29.518 36.361 36.372
H 29.431 35.863 38.066
C 32.17  33.664 38.399
H 33.132 33.392 37.962
H 32.282 34.76  38.594
C 32.02 32.99 39.74
H 32.956 33.147 40.232
H 31.147 33.384 40.309
H 31.795 31.915 39.51 
N 30.397 29.68  35.135
C 31.382 29.818 36.141
C 32.091 28.573 36.375
C 31.556 27.692 35.42 
C 30.557 28.454 34.697
C 33.013 28.234 37.39 
H 33.427 27.228 37.342
H 33.814 28.974 37.284
H 32.423 28.347 38.29 
C 31.528 26.332 34.908
O 32.129 25.333 35.376
C 30.567 26.269 33.77 
H 29.8   25.688 34.183
C 31.33  25.755 32.588
O 31.948 26.407 31.735
O 31.218 24.384 32.429
C 32.008 23.661 31.415
H 32.125 22.632 31.629
H 31.437 23.838 30.543
H 32.928 24.18  31.279
C 26.02  21.926 30.778
H 26.577 21.25  31.389
H 26.145 21.59  29.709
C 24.528 21.661 30.909
H 23.734 22.38  30.634
C 23.901 20.533 31.301
C 24.577 19.242 31.731
H 24.368 18.444 31.001
H 25.67  19.277 31.719
H 24.208 18.975 32.721
C 22.331 20.334 31.247
H 21.928 21.35  31.371
H 21.999 19.863 32.148
C 21.736 19.547 30.11 
H 22.449 18.817 29.734
H 21.555 20.249 29.29 
C 20.402 18.75  30.473
H 19.483 19.255 30.113
H 20.292 18.901 31.521
C 20.511 17.207 30.27 
H 21.141 17.067 29.356
C 19.18  16.586 30.078
H 19.272 15.531 29.786
H 18.532 16.776 30.887
H 18.648 17.066 29.23 
C 21.331 16.48  31.402
H 22.296 17.002 31.45 
H 21.528 15.545 31.098
C 20.713 16.529 32.756
H 20.592 15.458 33.047
H 19.745 16.993 32.696
C 21.64  17.164 33.824
H 20.945 17.641 34.561
H 22.271 17.952 33.525
C 22.593 16.293 34.636
H 22.093 15.486 35.124
C 23.283 17.298 35.712
H 24.098 16.827 36.202
H 23.684 18.194 35.277
H 22.477 17.661 36.383
C 23.804 15.685 33.827
H 24.708 15.638 34.517
H 24.187 16.451 33.075
C 23.511 14.4   33.056
H 24.018 14.457 32.107
H 22.434 14.202 32.891
C 24.022 13.139 33.799
H 23.208 12.654 34.365
H 24.612 13.432 34.698
C 24.751 12.099 32.864
H 25.426 12.635 32.246
C 23.899 11.438 31.839
H 24.439 10.706 31.208
H 22.98  10.993 32.406
H 23.528 12.174 31.205
C 25.575 11.067 33.634
H 26.284 10.458 33.043
H 26.076 11.609 34.425
H 24.865 10.399 34.073
