137

Mg 29.734 28.73  42.234
C 26.348 28.703 41.709
C 30.092 27.544 38.991
H 30.294 27.197 37.945
C 33.008 28.435 42.814
H 34.1   28.273 42.975
C 29.282 29.677 45.428
H 29.14  30.098 46.409
N 28.344 28.172 40.548
C 26.991 28.299 40.557
C 26.428 27.989 39.174
H 25.876 27.108 39.319
C 27.648 27.612 38.314
H 27.712 28.268 37.397
C 28.735 27.827 39.314
C 27.592 26.144 37.792
H 28.545 25.934 37.33 
H 27.403 25.518 38.694
H 26.769 25.949 37.179
C 25.319 28.961 38.559
H 25.701 29.944 38.71 
H 24.392 28.7   39.121
C 24.962 28.691 37.051
H 25.709 28.214 36.474
H 24.134 27.944 37.142
C 24.446 29.872 36.152
O 23.768 30.792 36.541
O 24.833 29.686 34.837
N 31.31  28.149 41.073
C 31.232 27.726 39.786
C 32.615 27.459 39.339
C 33.487 27.708 40.38 
C 32.602 28.163 41.488
C 32.976 27.077 37.859
H 33.823 27.657 37.633
H 33.095 25.967 37.784
H 32.275 27.401 37.067
C 34.983 27.614 40.327
H 35.519 28.158 41.105
C 35.635 26.824 39.51 
H 35.141 26.205 38.725
H 36.706 26.682 39.651
N 30.997 28.988 43.918
C 32.331 28.858 43.936
C 32.892 29.342 45.259
C 31.72  29.685 45.965
C 30.62  29.503 45.121
C 34.419 29.352 45.616
H 34.739 28.337 45.887
H 34.936 29.634 44.653
H 34.843 30.13  46.299
C 31.701 30.294 47.323
H 31.078 29.64  47.974
H 32.622 30.269 47.812
C 31.181 31.793 47.317
H 31.876 32.322 46.641
H 30.21  31.874 46.885
H 31.186 32.155 48.385
N 28.172 29.058 43.363
C 28.101 29.487 44.679
C 26.75  29.791 45.054
C 26.022 29.391 43.959
C 26.956 29.059 42.911
C 26.338 30.45  46.386
H 26.773 29.984 47.29 
H 26.776 31.454 46.384
H 25.257 30.366 46.372
C 24.709 29.314 43.426
O 23.598 29.633 43.92 
C 24.787 28.77  41.932
H 24.271 29.392 41.311
C 24.139 27.452 41.929
O 24.328 26.535 42.709
O 23.452 27.247 40.739
C 22.695 26.044 40.355
H 23.441 25.217 40.064
H 22.059 25.764 41.214
H 22.172 26.323 39.447
C 24.284 30.617 33.827
H 24.978 30.564 32.979
H 24.311 31.646 34.189
C 22.887 30.115 33.524
H 22.832 29.094 33.141
C 21.654 30.586 33.852
C 21.389 31.768 34.779
H 22.325 32.299 34.878
H 20.677 32.369 34.21 
H 21.042 31.356 35.749
C 20.372 29.765 33.516
H 20.584 29.323 32.533
H 19.635 30.498 33.363
C 19.792 28.808 34.532
H 18.985 29.441 34.959
H 20.455 28.561 35.324
C 19.226 27.558 33.919
H 19.402 26.719 34.647
H 19.777 27.385 33.017
C 17.637 27.534 33.705
H 17.223 27.676 34.709
C 17.125 26.157 33.158
H 16.035 26.087 33.079
H 17.575 26.04  32.167
H 17.496 25.34  33.851
C 17.129 28.709 32.839
H 17.057 29.691 33.278
H 16.101 28.357 32.656
C 17.851 28.929 31.455
H 18.442 28.022 31.224
H 18.55  29.737 31.514
C 16.843 29.108 30.26 
H 17.159 30.062 29.808
H 15.845 29.198 30.696
C 16.643 27.983 29.201
H 16.674 27.097 29.801
C 17.87  28.124 28.23 
H 17.879 27.214 27.71 
H 17.715 28.984 27.581
H 18.875 28.385 28.557
C 15.323 28.082 28.335
H 15.364 29.068 27.849
H 14.527 28.144 29.097
C 15.101 26.978 27.305
H 15.529 26.027 27.621
H 15.672 27.392 26.457
C 13.608 26.942 26.846
H 13.06  27.786 27.04 
H 13.234 26.13  27.421
C 13.425 26.662 25.33 
H 13.969 27.157 24.633
C 12.02  27.154 25.048
H 11.999 28.292 25.079
H 11.737 26.956 24.076
H 11.218 26.746 25.655
C 13.572 25.129 25.115
H 13.19  24.909 24.097
H 14.67  24.971 25.388
H 12.955 24.597 25.869
