137

Mg 28.454 29.953 37.218
C 27.865 26.85  38.727
C 28.149 28.445 34.152
H 28.18  27.918 33.149
C 29.471 32.843 35.778
H 29.822 33.807 35.3  
C 29.376 31.188 40.349
H 29.77  31.507 41.364
N 28.018 28.015 36.537
C 27.781 26.917 37.349
C 27.497 25.592 36.566
H 28.237 24.895 36.923
C 27.745 26.086 35.129
H 26.893 26.065 34.499
C 28.05  27.6   35.276
C 28.847 25.318 34.361
H 29.765 25.412 34.991
H 28.61  24.243 34.241
H 29.021 25.689 33.408
C 26.032 24.952 36.809
H 25.243 25.658 36.536
H 25.947 24.657 37.839
C 25.878 23.602 36.157
H 26.65  23.514 35.339
H 25.96  22.809 36.939
C 24.468 23.237 35.664
O 23.532 23.937 35.975
O 24.501 22.129 34.932
N 28.638 30.538 35.277
C 28.429 29.841 34.128
C 28.553 30.733 32.99 
C 29.009 31.988 33.452
C 28.979 31.818 34.907
C 28.341 30.3   31.536
H 27.708 29.463 31.43 
H 27.966 31.194 31.164
H 29.302 30.189 31.016
C 29.391 33.258 32.749
H 29.197 34.184 33.273
C 29.879 33.303 31.451
H 30.105 32.316 30.903
H 29.942 34.293 30.905
N 29.21  31.809 37.967
C 29.525 32.86  37.202
C 30.073 33.946 38.046
C 30.038 33.462 39.382
C 29.57  32.099 39.281
C 30.479 35.269 37.46 
H 29.623 35.435 36.841
H 30.533 36.065 38.174
H 31.423 35.273 36.968
C 30.502 34.246 40.57 
H 30.981 33.53  41.211
H 31.219 35.043 40.304
C 29.34  34.735 41.503
H 28.607 35.218 40.825
H 28.911 33.912 42.08 
H 29.716 35.458 42.187
N 28.534 29.266 39.11 
C 28.958 29.83  40.247
C 28.866 28.868 41.351
C 28.338 27.743 40.822
C 28.261 27.95  39.454
C 29.315 29.184 42.778
H 30.216 29.79  42.651
H 28.478 29.617 43.327
H 29.365 28.122 43.17 
C 27.864 26.465 41.103
O 27.727 25.901 42.178
C 27.421 25.816 39.734
H 26.276 25.773 39.838
C 28.231 24.578 39.668
O 29.355 24.462 39.231
O 27.466 23.574 40.24 
C 28.106 22.234 40.237
H 27.934 21.716 39.239
H 29.208 22.264 40.409
H 27.661 21.65  40.98 
C 23.142 21.725 34.604
H 22.598 22.444 33.924
H 22.586 21.455 35.604
C 23.313 20.312 33.957
H 24.098 19.738 34.464
C 22.805 19.889 32.759
C 21.73  20.709 32.001
H 21.35  21.559 32.523
H 22.286 20.991 31.095
H 20.916 20.122 31.702
C 23.26  18.644 32.148
H 24.116 18.342 32.797
H 23.626 18.944 31.199
C 22.192 17.53  31.966
H 21.419 17.523 32.738
H 22.788 16.604 31.841
C 21.415 17.589 30.563
H 21.848 18.447 29.956
H 20.386 17.773 30.747
C 21.619 16.368 29.581
H 22.724 16.293 29.328
C 21.034 16.621 28.173
H 21.509 15.885 27.494
H 19.944 16.69  28.149
H 21.575 17.529 27.943
C 21.16  15.039 30.129
H 21.814 14.908 30.975
H 21.469 14.211 29.453
C 19.668 14.822 30.491
H 19.044 15.718 30.481
H 19.728 14.359 31.447
C 19.146 13.582 29.677
H 19.417 12.657 30.131
H 19.686 13.541 28.69 
C 17.561 13.385 29.563
H 17.173 14.233 28.991
C 16.928 13.523 30.956
H 17.153 12.68  31.595
H 17.334 14.435 31.306
H 15.828 13.594 30.709
C 17.139 12.057 28.854
H 16.073 12.005 28.955
H 17.452 11.171 29.448
C 17.608 12.01  27.368
H 18.484 11.254 27.341
H 18.049 12.86  26.891
C 16.501 11.459 26.385
H 15.664 11.278 26.976
H 16.944 10.493 26.035
C 16.146 12.371 25.112
H 17.099 12.57  24.566
C 15.697 13.795 25.612
H 14.921 13.747 26.336
H 16.548 14.249 26.135
H 15.305 14.357 24.735
C 15.024 11.712 24.309
H 15.404 10.887 23.766
H 14.23  11.308 24.822
H 14.636 12.346 23.55 
