137

Mg 25.787 30.43  34.458
C 24.722 30.299 37.808
C 22.582 31.271 33.53 
H 21.535 31.504 33.194
C 27.019 30.913 31.462
H 27.337 31.18  30.466
C 28.978 29.608 35.699
H 29.958 29.282 35.958
N 23.838 30.663 35.497
C 23.657 30.565 36.867
C 22.191 30.807 37.271
H 21.939 29.902 37.813
C 21.455 30.767 35.913
H 20.837 31.717 35.839
C 22.648 30.898 34.915
C 20.472 29.586 35.611
H 20.035 29.753 34.583
H 21.08  28.653 35.658
H 19.748 29.54  36.417
C 22.131 32.238 37.944
H 22.522 32.871 37.119
H 22.852 32.354 38.822
C 20.788 32.713 38.498
H 20.013 31.961 38.211
H 20.711 32.801 39.592
C 20.232 33.994 37.841
O 20.954 34.806 37.272
O 18.878 34.016 37.847
N 24.908 30.857 32.723
C 23.59  31.213 32.511
C 23.32  31.498 31.087
C 24.609 31.385 30.467
C 25.605 31.068 31.57 
C 21.988 31.906 30.422
H 21.735 32.902 30.695
H 22.074 31.781 29.313
H 21.172 31.221 30.72 
C 24.988 31.679 29.031
H 25.858 31.151 28.678
C 24.406 32.641 28.204
H 23.53  33.086 28.602
H 24.87  32.897 27.222
N 27.642 30.398 33.687
C 27.949 30.658 32.416
C 29.404 30.488 32.169
C 29.977 30.191 33.424
C 28.802 29.976 34.315
C 30.108 30.602 30.821
H 31.183 30.827 30.931
H 29.956 29.733 30.225
H 29.761 31.484 30.305
C 31.458 30.012 33.678
H 31.725 28.933 33.933
H 32.035 30.286 32.777
C 31.887 30.977 34.767
H 32.958 30.999 34.911
H 31.632 32.032 34.538
H 31.408 30.644 35.648
N 26.681 30.005 36.264
C 27.993 29.698 36.592
C 28.103 29.44  38.073
C 26.868 29.742 38.585
C 26.016 29.996 37.472
C 29.394 29.163 38.775
H 29.268 29.149 39.844
H 29.648 28.17  38.5  
H 30.188 29.851 38.359
C 26.085 29.753 39.773
O 26.403 29.696 40.962
C 24.663 30.092 39.332
H 24.257 30.978 39.949
C 23.862 28.885 39.545
O 24.167 27.736 39.208
O 22.679 29.237 40.108
C 21.797 28.115 40.501
H 20.897 28.481 40.811
H 21.558 27.537 39.607
H 22.152 27.394 41.266
C 18.226 35.105 37.152
H 18.692 35.38  36.207
H 18.348 35.926 37.855
C 16.825 34.598 36.902
H 16.102 35.077 37.576
C 16.451 33.467 36.293
C 17.379 32.604 35.398
H 17.61  31.676 35.933
H 16.803 32.48  34.478
H 18.384 33.028 35.212
C 15.033 32.991 36.446
H 14.531 33.501 37.263
H 15.074 31.89  36.77 
C 14.224 33.094 35.141
H 13.431 32.32  35.28 
H 14.904 32.929 34.29 
C 13.594 34.512 34.929
H 14.289 35.204 35.328
H 12.694 34.628 35.549
C 13.173 34.865 33.472
H 14.069 34.956 32.896
C 12.648 36.332 33.319
H 12.688 36.696 32.269
H 11.673 36.401 33.69 
H 13.239 37.128 33.803
C 12.366 33.778 32.744
H 13.027 32.961 32.477
H 12.202 34.162 31.706
C 10.967 33.462 33.265
H 10.18  33.893 32.57 
H 10.659 33.929 34.197
C 10.806 31.931 33.369
H 10.168 31.713 34.268
H 11.81  31.52  33.547
C 10.061 31.027 32.266
H  9.153 31.589 31.967
C  9.597 29.732 32.94 
H  9.314 28.98  32.18 
H 10.435 29.34  33.487
H  8.747 30.05  33.599
C 11.073 30.717 31.118
H 11.981 30.216 31.591
H 11.461 31.597 30.743
C 10.633 29.712 30.088
H  9.553 29.771 29.984
H 11.035 28.686 30.373
C 11.173 30.074 28.677
H 11.892 29.307 28.371
H 11.79  30.898 28.741
C 10.08  30.249 27.588
H  9.834 29.203 27.308
C 10.675 30.913 26.206
H  9.83  31.102 25.527
H 11.206 31.852 26.358
H 11.379 30.211 25.823
C  8.729 31.024 27.889
H  8.135 31.149 27.023
H  8.104 30.457 28.604
H  8.956 31.938 28.404
