137

Mg 28.598 30.355 34.115
C 28.167 29.69  37.438
C 25.377 29.284 33.482
H 24.35  29.098 33.343
C 29.092 30.801 30.704
H 29.301 30.899 29.615
C 31.802 31.414 34.779
H 32.835 31.667 35.068
N 27.024 29.432 35.255
C 27.003 29.357 36.617
C 25.698 28.673 37.146
H 26.102 27.762 37.594
C 24.937 28.36  35.764
H 23.891 28.621 35.639
C 25.814 29.172 34.763
C 24.897 26.907 35.391
H 24.433 26.703 34.437
H 25.882 26.593 35.59 
H 24.324 26.366 36.169
C 24.956 29.48  38.231
H 24.389 30.251 37.671
H 25.768 30.007 38.71 
C 24.082 28.732 39.191
H 24.325 27.694 39.363
H 24.182 29.171 40.203
C 22.624 28.668 38.803
O 21.677 29.239 39.367
O 22.439 28.011 37.595
N 27.372 30.222 32.361
C 26.083 29.717 32.334
C 25.597 29.733 30.999
C 26.727 29.933 30.216
C 27.837 30.262 31.102
C 24.249 29.34  30.559
H 24.092 29.492 29.513
H 24.065 28.307 30.765
H 23.536 29.85  31.221
C 26.908 29.901 28.711
H 27.724 30.573 28.305
C 26.199 29.179 27.822
H 25.394 28.497 28.145
H 26.503 29.094 26.737
N 30.144 31.047 32.979
C 30.149 31.144 31.549
C 31.391 31.763 31.15 
C 32.123 31.975 32.327
C 31.357 31.493 33.408
C 31.798 32.123 29.713
H 31.202 31.528 29.068
H 31.583 33.223 29.53 
H 32.895 31.994 29.524
C 33.558 32.48  32.379
H 34.174 31.747 32.948
H 33.959 32.504 31.406
C 33.504 33.838 33.05 
H 32.661 34.465 32.718
H 33.566 33.804 34.13 
H 34.439 34.296 32.808
N 29.743 30.489 35.656
C 31.045 31.026 35.851
C 31.489 30.95  37.225
C 30.371 30.358 37.874
C 29.37  30.158 36.899
C 32.914 31.214 37.734
H 33.018 30.472 38.571
H 33.638 30.933 36.972
H 32.97  32.311 38.097
C 29.967 29.861 39.12 
O 30.516 29.807 40.224
C 28.482 29.482 38.941
H 27.964 30.287 39.513
C 28.372 28.137 39.548
O 29.017 27.154 39.15 
O 27.334 28.127 40.421
C 26.935 26.756 40.811
H 27.708 26.349 41.476
H 25.96  26.766 41.311
H 26.957 26.179 39.894
C 21.228 28.404 36.933
H 20.966 29.438 36.894
H 20.469 27.936 37.602
C 21.17  27.69  35.652
H 21.191 26.598 35.766
C 21.023 28.265 34.439
C 21.016 29.795 34.237
H 21.012 30.382 35.168
H 21.932 30.056 33.816
H 20.235 30.127 33.615
C 20.788 27.459 33.204
H 20.978 26.457 33.513
H 21.558 27.732 32.493
C 19.337 27.49  32.574
H 18.929 28.483 32.781
H 18.679 26.732 33.002
C 19.285 27.269 31.029
H 20.278 26.916 30.724
H 19.31  28.292 30.501
C 18.246 26.31  30.422
H 18.56  25.291 30.737
C 18.327 26.387 28.892
H 19.386 26.257 28.578
H 17.748 25.581 28.482
H 17.925 27.326 28.488
C 16.767 26.375 30.847
H 16.661 25.973 31.838
H 16.093 25.69  30.307
C 16.138 27.766 30.88 
H 16.889 28.475 30.581
H 15.699 27.773 31.867
C 14.958 27.975 29.99 
H 14.117 28.014 30.69 
H 14.744 27.125 29.359
C 14.955 29.235 29.109
H 15.779 29.16  28.339
C 15.184 30.501 30.043
H 14.485 30.292 30.848
H 16.126 30.613 30.498
H 14.968 31.433 29.481
C 13.571 29.273 28.294
H 12.769 29.253 29.027
H 13.423 28.34  27.708
C 13.394 30.35  27.251
H 13.345 29.848 26.277
H 14.295 30.936 27.368
C 12.052 31.106 27.437
H 11.595 31.098 28.403
H 11.312 30.591 26.833
C 12.099 32.593 27.079
H 13.043 32.875 27.45 
C 10.942 33.418 27.652
H 10.896 33.356 28.696
H 11.043 34.463 27.415
H 10.028 32.979 27.263
C 12.167 32.852 25.581
H 12.701 33.8   25.456
H 12.684 31.988 25.058
H 11.225 32.911 25.13 
