137

Mg 29.113 28.155 33.274
C 26.871 26.969 30.725
C 31.658 27.648 31.049
H 32.528 27.479 30.375
C 31.297 29.245 35.544
H 31.98  29.423 36.367
C 26.515 28.151 35.457
H 25.807 27.936 36.333
N 29.306 27.497 31.07 
C 28.225 27.032 30.288
C 28.737 26.849 28.869
H 28.304 25.933 28.57 
C 30.245 26.752 28.999
H 30.819 27.479 28.413
C 30.417 27.31  30.472
C 31.024 25.46  28.583
H 30.545 24.455 28.865
H 31.182 25.528 27.529
H 31.987 25.516 29.132
C 28.317 27.956 27.804
H 28.876 28.813 28.052
H 27.309 28.303 28.023
C 28.456 27.716 26.267
H 29.092 28.513 25.846
H 28.852 26.706 26.063
C 27.202 27.716 25.425
O 27.08  28.277 24.354
O 26.165 26.973 25.977
N 31.018 28.68  33.204
C 31.936 28.36  32.223
C 33.321 28.777 32.614
C 33.163 29.372 33.888
C 31.776 29.069 34.26 
C 34.577 28.649 31.644
H 34.435 29.4   30.838
H 35.489 28.782 32.212
H 34.663 27.592 31.2  
C 34.123 30.091 34.755
H 34.022 30.14  35.775
C 35.156 30.804 34.243
H 35.282 31.022 33.172
H 35.767 31.443 34.954
N 28.904 28.629 35.214
C 29.937 28.986 36.048
C 29.494 29.003 37.43 
C 28.11  28.708 37.308
C 27.776 28.413 35.933
C 30.349 29.46  38.562
H 29.794 29.477 39.48 
H 31.333 29.05  38.538
H 30.506 30.49  38.453
C 27.193 28.884 38.479
H 26.541 27.959 38.622
H 27.745 29.124 39.39 
C 26.312 30.128 38.402
H 25.963 30.251 37.36 
H 25.4   29.938 39.04 
H 26.926 30.994 38.481
N 27.17  27.583 33.189
C 26.178 27.665 34.175
C 24.987 27.062 33.72 
C 25.161 26.908 32.331
C 26.493 27.2   32.018
C 23.799 26.887 34.556
H 23.499 25.858 34.486
H 23.854 27.047 35.657
H 23.029 27.431 34.073
C 24.573 26.398 31.088
O 23.487 25.903 30.897
C 25.653 26.394 30.084
H 25.425 26.978 29.262
C 25.872 24.96  29.777
O 26.468 24.121 30.469
O 25.303 24.632 28.546
C 25.384 23.2   28.248
H 26.427 22.795 28.244
H 24.859 22.85  29.134
H 24.94  22.766 27.406
C 24.88  27.189 25.333
H 24.878 26.787 24.298
H 24.583 28.347 25.333
C 23.952 26.454 26.315
H 23.917 26.88  27.323
C 23.19  25.424 26.149
C 23.161 24.619 24.926
H 22.125 24.374 24.778
H 23.644 25.127 24.137
H 23.474 23.594 24.955
C 22.423 24.92  27.371
H 22.727 25.353 28.31 
H 22.584 23.876 27.38 
C 20.938 24.957 27.192
H 20.65  24.313 26.325
H 20.628 25.949 26.842
C 20.276 24.535 28.491
H 19.518 25.307 28.704
H 20.97  24.53  29.298
C 19.372 23.243 28.518
H 18.792 23.354 27.562
C 18.225 23.267 29.584
H 18.694 23.073 30.591
H 17.641 24.193 29.438
H 17.581 22.414 29.484
C 20.123 21.882 28.55 
H 20.788 21.937 27.731
H 19.458 21.099 28.295
C 21.098 21.65  29.764
H 20.737 22.239 30.613
H 22.092 21.986 29.515
C 21.256 20.112 30.109
H 22.267 19.887 30.435
H 21.052 19.397 29.281
C 20.308 19.707 31.283
H 20.599 20.389 32.158
C 20.73  18.22  31.748
H 20.085 17.663 32.479
H 21.097 17.64  30.917
H 21.637 18.373 32.375
C 18.811 19.79  30.893
H 18.616 18.923 30.29 
H 18.471 20.715 30.382
C 17.778 19.59  32.033
H 17.484 20.632 32.228
H 18.252 19.147 32.929
C 16.585 18.61  31.698
H 16.764 17.636 32.169
H 16.524 18.51  30.585
C 15.241 19.167 32.263
H 15.431 19.584 33.323
C 14.165 18.139 32.347
H 14.051 17.584 31.375
H 14.456 17.485 33.125
H 13.209 18.61  32.622
C 14.781 20.384 31.4  
H 14.323 20.019 30.481
H 14.128 20.9   32.061
H 15.636 21.044 31.164
