137

Mg 20.947 25.298 37.213
C 19.497 22.234 37.937
C 21.107 24.346 33.923
H 21.098 23.977 32.884
C 21.838 28.425 36.48 
H 22.197 29.451 36.326
C 20.462 26.141 40.6  
H 20.427 26.396 41.653
N 20.572 23.422 36.073
C 19.979 22.294 36.64 
C 19.772 21.245 35.587
H 20.356 20.399 35.925
C 20.425 21.894 34.281
H 19.8   21.928 33.459
C 20.71  23.266 34.759
C 21.604 21.032 33.788
H 22.223 20.673 34.635
H 21.263 20.135 33.298
H 22.188 21.641 33.081
C 18.257 20.912 35.395
H 17.821 21.795 35.004
H 17.781 20.625 36.289
C 18.157 19.731 34.359
H 19.019 19.104 34.329
H 17.328 19.141 34.623
C 17.842 20.09  32.923
O 17.54  21.176 32.5  
O 17.88  18.977 32.071
N 21.386 26.211 35.468
C 21.414 25.682 34.183
C 21.59  26.801 33.265
C 21.729 28.038 33.981
C 21.705 27.589 35.377
C 21.637 26.602 31.774
H 22.704 26.58  31.499
H 21.122 25.759 31.367
H 21.22  27.472 31.308
C 21.758 29.434 33.647
H 21.417 30.203 34.372
C 22.049 29.894 32.401
H 22.424 29.245 31.622
H 21.857 30.969 32.142
N 21.13  27.014 38.347
C 21.599 28.219 37.818
C 21.63  29.239 38.939
C 21.095 28.577 40.071
C 20.84  27.182 39.677
C 22.122 30.643 38.742
H 21.795 31.225 39.558
H 23.183 30.773 38.675
H 21.484 31.009 37.92 
C 20.661 29.172 41.346
H 21.005 28.567 42.173
H 21.077 30.189 41.393
C 19.173 29.487 41.386
H 18.827 29.562 42.411
H 18.825 30.342 40.694
H 18.622 28.654 41.069
N 20.147 24.416 38.885
C 19.977 24.893 40.179
C 19.309 23.901 41.037
C 19.121 22.809 40.172
C 19.643 23.191 38.911
C 19.012 23.887 42.592
H 18.887 22.827 42.847
H 19.878 24.328 43.076
H 18.047 24.416 42.795
C 18.564 21.478 40.111
O 18.095 20.801 41.009
C 18.83  21.041 38.698
H 17.876 20.645 38.254
C 19.803 19.947 38.729
O 21.021 20.122 38.711
O 19.165 18.731 38.749
C 20.066 17.535 38.864
H 19.589 16.658 38.55 
H 20.92  17.677 38.161
H 20.442 17.384 39.818
C 17.478 19.268 30.699
H 18.288 19.73  30.131
H 16.653 19.957 30.648
C 17.073 17.929 30.158
H 17.921 17.238 30.282
C 15.945 17.503 29.654
C 14.688 18.301 29.566
H 14.828 19.254 30.021
H 14.385 18.543 28.514
H 13.866 17.726 30.129
C 15.941 16.071 29.032
H 16.977 15.835 28.824
H 15.483 16.23  28.023
C 15.29  14.9   29.853
H 15.096 15.214 30.898
H 15.94  13.98  29.752
C 13.968 14.509 29.212
H 14.21  13.599 28.769
H 13.505 15.062 28.37 
C 12.854 14.219 30.251
H 13.339 13.831 31.136
C 11.905 13.076 29.801
H 11.244 12.959 30.613
H 11.336 13.24  28.892
H 12.445 12.17  29.777
C 12.045 15.452 30.726
H 12.737 16.129 31.3  
H 11.318 15.037 31.526
C 11.1   16.174 29.691
H 11.222 15.749 28.71 
H 11.553 17.192 29.56 
C  9.669 16.272 30.159
H  9.309 15.518 30.944
H  9.029 16.043 29.27 
C  9.181 17.72  30.514
H  9.345 18.248 29.581
C  9.988 18.16  31.759
H  9.694 19.106 32.096
H  9.972 17.494 32.603
H 11.031 18.326 31.505
C  7.67  17.733 30.802
H  7.486 17.194 31.731
H  7.205 17.173 29.946
C  7.082 19.146 30.895
H  7.802 19.962 30.893
H  6.39  19.224 31.724
C  6.16  19.495 29.643
H  5.185 19.752 30.11 
H  6.041 18.65  28.984
C  6.508 20.751 28.758
H  6.631 21.672 29.295
C  5.244 21.021 27.857
H  5.287 20.372 26.979
H  4.287 20.791 28.421
H  5.166 22.08  27.446
C  7.777 20.659 27.91 
H  7.826 21.521 27.273
H  8.599 20.497 28.525
H  7.721 19.782 27.227
