137

Mg 35.575 28.805 33.999
C 32.088 29.034 34.352
C 35.14  27.315 31.06 
H 35.04  26.684 30.247
C 38.929 28.598 33.809
H 39.995 28.502 33.614
C 35.951 30.494 37.064
H 36.132 31.14  37.939
N 33.892 28.229 32.92 
C 32.555 28.449 33.188
C 31.664 27.791 32.18 
H 30.88  27.203 32.717
C 32.653 26.899 31.406
H 32.482 26.736 30.317
C 34.008 27.529 31.785
C 32.567 25.384 32.016
H 33.525 24.907 31.987
H 32.259 25.538 33.105
H 31.797 24.897 31.532
C 30.883 28.906 31.315
H 31.716 29.467 30.89 
H 30.257 29.471 32.003
C 30.017 28.239 30.301
H 29.28  29.031 29.955
H 30.65  28.051 29.348
C 29.14  27.013 30.538
O 29.585 25.893 30.729
O 27.755 27.365 30.468
N 36.858 28.134 32.563
C 36.513 27.557 31.343
C 37.685 27.142 30.644
C 38.731 27.533 31.46 
C 38.227 28.187 32.662
C 37.705 26.636 29.252
H 38.54  25.977 29.109
H 36.846 26.016 29.162
H 37.628 27.48  28.637
C 40.181 27.358 31.185
H 40.559 27.568 30.193
C 41.089 27.052 32.104
H 40.787 26.758 33.154
H 42.14  26.945 31.868
N 37.19  29.367 35.291
C 38.454 29.181 35.033
C 39.301 29.842 35.942
C 38.461 30.537 36.864
C 37.137 30.151 36.451
C 40.798 29.751 36.011
H 41.123 28.887 35.393
H 41.109 30.728 35.602
H 41.22  29.741 36.973
C 38.914 31.216 38.138
H 38.7   30.54  38.993
H 40.02  31.295 38.045
C 38.388 32.565 38.569
H 38.895 33.019 39.419
H 38.46  33.345 37.696
H 37.292 32.632 38.689
N 34.325 29.496 35.458
C 34.596 30.168 36.645
C 33.353 30.514 37.327
C 32.39  30.089 36.413
C 32.993 29.535 35.318
C 33.155 31.28  38.584
H 32.194 31.793 38.602
H 33.246 30.529 39.419
H 33.959 32.062 38.571
C 30.929 30.05  36.141
O 29.945 30.472 36.781
C 30.682 29.323 34.84 
H 30.012 29.82  34.19 
C 30.061 28.061 35.192
O 30.534 27.255 36.014
O 28.826 27.949 34.724
C 28.029 26.892 35.397
H 27.929 27.188 36.434
H 27.038 26.84  34.964
H 28.472 25.966 35.352
C 26.784 26.301 30.795
H 26.662 26.211 31.873
H 27.041 25.357 30.3  
C 25.478 26.752 30.153
H 25.534 27.005 29.066
C 24.187 26.762 30.653
C 23.831 26.469 32.125
H 23.596 27.384 32.679
H 23.057 25.798 32.292
H 24.677 25.967 32.671
C 23.031 27.125 29.758
H 22.781 28.159 29.945
H 22.224 26.475 30.221
C 23.016 26.631 28.292
H 21.999 26.211 28.057
H 23.724 25.829 28.135
C 23.19  27.7   27.184
H 24.154 27.587 26.667
H 23.228 28.628 27.691
C 21.985 27.885 26.234
H 21.169 27.992 26.968
C 21.828 26.732 25.21 
H 20.804 26.977 24.773
H 22.613 26.796 24.433
H 21.839 25.673 25.61 
C 22.09 29.19 25.43
H 21.268 29.18  24.689
H 23.02  29.202 24.924
C 21.878 30.519 26.274
H 21.574 30.257 27.33 
H 21.036 31.102 25.84 
C 23.152 31.342 26.534
H 24.09  30.769 26.41 
H 23.189 31.581 27.558
C 23.182 32.671 25.798
H 22.135 33.11  25.772
C 23.607 32.555 24.352
H 23.041 31.849 23.724
H 23.519 33.509 23.831
H 24.668 32.236 24.146
C 24.142 33.737 26.49 
H 24.262 34.582 25.81 
H 25.021 33.211 26.766
C 23.558 34.269 27.847
H 24.225 33.914 28.67 
H 22.559 33.898 27.997
C 23.579 35.801 27.992
H 22.734 36.2   27.487
H 24.6   36.105 27.587
C 23.51  36.318 29.438
H 24.46  36.091 29.861
C 22.282 35.749 30.178
H 21.323 36.003 29.743
H 22.34  34.696 30.35 
H 22.216 36.221 31.157
C 23.328 37.844 29.402
H 23.593 38.214 30.349
H 23.831 38.372 28.624
H 22.282 38.052 29.29 
