137

Mg 27.36  26.777 44.599
C 24.843 24.883 42.988
C 28.461 27.724 41.499
H 28.913 27.926 40.437
C 29.425 28.989 46.078
H 30.062 29.662 46.641
C 25.749 26.33  47.564
H 25.216 26.278 48.455
N 26.84 26.22 42.51
C 25.781 25.407 42.085
C 25.827 25.052 40.586
H 26.222 24.016 40.517
C 27.114 25.931 40.161
H 26.85  26.674 39.41 
C 27.473 26.693 41.469
C 28.327 25.18  39.543
H 29.194 25.835 39.553
H 28.538 24.331 40.175
H 28.004 24.831 38.566
C 24.463 25.241 39.831
H 24.173 26.185 40.198
H 23.747 24.473 40.076
C 24.584 25.31  38.26 
H 25.6   25.263 37.826
H 23.901 24.445 37.972
C 23.99  26.563 37.559
O 24.64  27.418 37.035
O 22.613 26.519 37.535
N 28.865 27.985 43.899
C 29.132 28.33  42.609
C 30.217 29.364 42.58 
C 30.493 29.7   43.871
C 29.56  28.833 44.664
C 30.922 30.002 41.386
H 31.878 30.454 41.688
H 30.928 29.238 40.591
H 30.443 30.891 40.955
C 31.358 30.775 44.468
H 31.785 30.554 45.445
C 31.594 31.887 43.818
H 31.089 32.087 42.853
H 32.329 32.64  44.244
N 27.648 27.502 46.542
C 28.582 28.35  46.861
C 28.585 28.472 48.325
C 27.547 27.69  48.767
C 26.97  27.112 47.592
C 29.637 29.137 49.258
H 30.44  29.516 48.674
H 29.105 29.986 49.754
H 29.923 28.352 49.953
C 27.049 27.542 50.21 
H 27.059 26.505 50.513
H 27.756 28.022 50.906
C 25.699 28.216 50.452
H 25.302 27.789 51.405
H 25.747 29.276 50.734
H 24.972 28.07  49.662
N 25.725 25.753 45.226
C 25.13  25.719 46.439
C 23.907 24.95  46.423
C 23.764 24.652 45.073
C 24.878 25.129 44.412
C 23.014 24.747 47.482
H 22.222 25.488 47.542
H 22.358 23.872 47.553
H 23.502 24.705 48.453
C 22.899 23.937 44.133
O 21.824 23.396 44.261
C 23.585 24.046 42.767
H 22.855 24.646 42.194
C 23.946 22.664 42.286
O 24.806 21.876 42.744
O 23.177 22.351 41.2  
C 23.396 20.967 40.788
H 22.509 20.64  40.194
H 24.165 20.937 40.048
H 23.496 20.213 41.621
C 21.844 27.5   36.802
H 21.986 27.534 35.725
H 22.019 28.454 37.257
C 20.424 27.181 37.136
H 20.248 27.137 38.201
C 19.36  26.84  36.358
C 19.386 26.859 34.853
H 20.303 27.232 34.44 
H 19.184 25.846 34.605
H 18.522 27.553 34.511
C 17.975 26.71  36.929
H 17.955 25.945 37.722
H 17.282 26.443 36.176
C 17.544 27.994 37.591
H 17.913 28.886 37.151
H 17.985 27.956 38.677
C 16.036 27.958 37.877
H 15.994 28.183 38.949
H 15.585 27.004 37.635
C 15.12  29.072 37.187
H 15.52  30.02  37.622
C 13.66  28.931 37.806
H 13.049 29.79  37.625
H 13.21  28.013 37.497
H 13.655 28.806 38.894
C 15.085 29.034 35.59 
H 16.091 29.356 35.215
H 14.389 29.779 35.305
C 14.8   27.595 35.008
H 14.603 26.982 35.849
H 15.714 27.232 34.507
C 13.538 27.626 34.155
H 13.755 27.543 33.117
H 12.992 28.614 34.31 
C 12.55  26.475 34.572
H 12.267 26.724 35.569
C 13.277 25.068 34.448
H 13.38  24.851 33.39 
H 14.238 24.941 35.029
H 12.515 24.349 34.866
C 11.328 26.613 33.613
H 11.743 26.379 32.602
H 11.013 27.633 33.637
C 10.02  25.778 33.782
H  9.337 26.615 33.963
H  9.932 25.281 34.769
C  9.559 24.856 32.658
H  9.803 23.821 32.967
H 10.124 25.027 31.808
C  8.024 25.08  32.315
H  7.867 26.132 32.012
C  7.038 24.82  33.54 
H  7.162 25.631 34.289
H  6.013 24.916 33.118
H  7.173 23.853 33.916
C  7.659 24.105 31.186
H  6.694 24.428 30.878
H  8.349 24.02  30.36 
H  7.561 23.08  31.578
