137

Mg 25.132 30.121 34.338
C 24.028 30.852 37.571
C 22.064 31.187 33.049
H 21.042 31.441 32.76 
C 26.431 29.969 31.176
H 26.943 29.928 30.216
C 28.096 29.065 35.678
H 29.078 28.735 36.073
N 23.29  30.982 35.222
C 23.14  31.253 36.553
C 21.762 31.841 36.831
H 21.415 31.012 37.455
C 21.132 31.866 35.327
H 21.029 32.811 34.996
C 22.218 31.257 34.454
C 19.769 31.207 35.245
H 19.797 30.154 35.581
H 19.084 31.792 35.83 
H 19.321 31.196 34.248
C 21.691 33.182 37.514
H 21.791 33.942 36.712
H 22.474 33.245 38.259
C 20.414 33.497 38.34 
H 19.71  32.684 38.203
H 20.752 33.61  39.375
C 19.736 34.823 38.159
O 20.166 35.942 38.435
O 18.509 34.683 37.529
N 24.432 30.499 32.438
C 23.149 30.858 32.119
C 23.033 31.01  30.702
C 24.201 30.58  30.136
C 25.101 30.35  31.224
C 21.859 31.678 30.01 
H 22.316 32.577 29.62 
H 21.56  31.066 29.191
H 21.058 31.84  30.683
C 24.675 30.605 28.71 
H 25.628 30.106 28.488
C 24.053 31.197 27.687
H 23.202 31.771 27.853
H 24.357 31.084 26.609
N 26.941 29.57  33.551
C 27.297 29.692 32.24 
C 28.759 29.344 32.052
C 29.218 28.978 33.334
C 28.034 29.164 34.277
C 29.566 29.458 30.79 
H 29.585 30.476 30.422
H 30.592 29.145 31.051
H 29.158 28.758 30.011
C 30.57  28.526 33.789
H 30.521 27.764 34.578
H 31.159 28.123 32.953
C 31.409 29.765 34.291
H 31.024 30.183 35.201
H 32.431 29.475 34.454
H 31.34  30.647 33.559
N 25.882 29.801 36.182
C 27.125 29.388 36.578
C 27.183 29.482 38.035
C 25.969 29.985 38.456
C 25.23  30.17  37.275
C 28.413 29.312 38.809
H 29.214 29.882 38.346
H 28.231 29.584 39.861
H 28.73  28.269 38.783
C 25.163 30.328 39.547
O 25.427 30.34  40.727
C 23.841 30.918 39.056
H 23.756 31.946 39.444
C 22.71  30.085 39.593
O 22.676 28.881 39.724
O 21.764 30.936 39.84 
C 20.575 30.317 40.52 
H 19.813 31.081 40.565
H 20.176 29.383 39.951
H 20.848 29.921 41.495
C 17.841 35.94  37.102
H 18.437 36.432 36.323
H 17.86  36.587 37.989
C 16.411 35.763 36.705
H 15.861 36.61  36.899
C 15.69  34.707 36.258
C 16.47  33.411 35.809
H 17.429 33.749 35.392
H 16.496 32.741 36.664
H 15.921 32.864 35.052
C 14.131 34.824 35.979
H 13.814 35.808 36.374
H 13.712 33.995 36.537
C 13.741 34.661 34.49 
H 12.898 33.96  34.385
H 14.557 34.321 33.875
C 13.081 35.969 33.871
H 13.372 36.904 34.443
H 11.983 35.82  33.999
C 13.301 36.131 32.379
H 14.349 36.185 32.213
C 12.701 37.516 31.877
H 12.838 37.674 30.821
H 11.652 37.575 32.115
H 13.293 38.31  32.457
C 12.891 34.966 31.505
H 13.183 34.081 32.04 
H 13.402 35.007 30.53 
C 11.369 34.897 31.261
H 11.131 35.156 30.216
H 10.814 35.578 31.837
C 10.791 33.489 31.616
H  9.794 33.665 31.87 
H 11.235 33.031 32.432
C 10.562 32.466 30.384
H  9.947 33.047 29.629
C  9.864 31.242 30.977
H 10.222 30.326 30.44 
H 10.167 31.121 32.001
H  8.814 31.29  30.806
C 11.96  32.106 29.76 
H 12.584 31.652 30.516
H 12.425 33.045 29.393
C 11.998 31.186 28.618
H 10.914 30.994 28.321
H 12.52  30.226 28.833
C 12.826 31.834 27.447
H 13.606 31.18  27.102
H 13.391 32.712 27.769
C 12.069 32.136 26.12 
H 11.743 31.155 25.706
C 13.044 32.659 25.07 
H 12.54  32.635 24.13 
H 13.38  33.711 25.301
H 13.966 32.12  24.989
C 10.803 33.083 26.25 
H 10.545 33.528 25.227
H 10.042 32.457 26.629
H 11.001 33.918 26.87 
