137

Mg 23.725 31.401 36.994
C 22.077 28.8   38.748
C 20.946 31.842 35.125
H 20.132 31.903 34.476
C 25.46  33.592 35.279
H 25.935 34.206 34.515
C 26.414 30.932 39.183
H 27.368 30.731 39.749
N 21.74  30.457 37.003
C 21.299 29.421 37.812
C 19.857 29.064 37.43 
H 19.842 28.027 37.143
C 19.512 29.905 36.119
H 18.602 30.475 36.253
C 20.778 30.795 36.041
C 19.402 29.089 34.777
H 18.904 29.607 33.972
H 20.377 28.573 34.495
H 18.716 28.272 35.045
C 18.884 29.384 38.604
H 19.057 30.43  38.677
H 19.137 28.946 39.572
C 17.382 29.155 38.345
H 17.111 28.978 37.272
H 17.066 28.286 38.822
C 16.508 30.295 38.794
O 15.913 30.323 39.86 
O 16.443 31.205 37.842
N 23.256 32.628 35.402
C 22.093 32.652 34.773
C 22.19  33.691 33.735
C 23.46  34.273 33.819
C 24.128 33.494 34.869
C 21.001 34.049 32.856
H 20.165 33.447 33.009
H 20.816 35.134 32.982
H 21.106 33.93  31.791
C 24.015 35.453 33.109
H 24.932 35.945 33.425
C 23.449 36.008 31.988
H 22.631 35.543 31.415
H 24.104 36.731 31.487
N 25.57  32.22  37.235
C 26.126 33.047 36.341
C 27.577 33.235 36.738
C 27.787 32.587 37.944
C 26.522 31.917 38.204
C 28.594 33.976 35.906
H 29.059 34.619 36.637
H 29.237 33.203 35.507
H 28.071 34.63  35.177
C 29.006 32.505 38.777
H 29.332 31.479 38.755
H 29.837 33.073 38.277
C 28.899 33.033 40.216
H 29.899 33.124 40.625
H 28.44  34.003 40.139
H 28.28  32.318 40.78 
N 24.188 30.224 38.687
C 25.255 30.157 39.463
C 25.104 29.212 40.535
C 23.892 28.616 40.25 
C 23.368 29.255 39.111
C 26.069 28.795 41.638
H 27.021 28.331 41.252
H 26.199 29.689 42.249
H 25.691 28.062 42.331
C 22.97 27.63 40.7 
O 23.107 26.837 41.628
C 21.735 27.729 39.857
H 20.9   27.991 40.483
C 21.389 26.304 39.408
O 21.74  25.798 38.393
O 20.484 25.766 40.287
C 20.001 24.373 39.886
H 19.35  23.956 40.679
H 19.32  24.419 38.983
H 20.827 23.698 39.616
C 15.487 32.29  38.082
H 16.064 32.928 38.816
H 14.507 32.066 38.512
C 15.406 32.975 36.729
H 14.617 32.586 36.016
C 15.973 34.129 36.335
C 16.799 34.999 37.19 
H 16.564 36.011 36.945
H 16.646 35.014 38.242
H 17.801 34.819 37.017
C 15.789 34.704 34.968
H 15.605 33.874 34.317
H 16.714 35.185 34.639
C 14.582 35.706 34.815
H 14.598 36.504 35.603
H 13.617 35.107 34.886
C 14.666 36.442 33.437
H 13.699 36.366 32.973
H 15.415 35.893 32.876
C 15.018 37.999 33.364
H 14.324 38.449 34.053
C 14.531 38.446 31.948
H 15.135 37.96  31.147
H 13.452 38.191 31.793
H 14.604 39.55  31.745
C 16.523 38.321 33.75 
H 16.742 37.873 34.681
H 16.451 39.335 34.035
C 17.681 38.134 32.706
H 17.445 37.57  31.869
H 18.417 37.581 33.244
C 18.338 39.505 32.389
H 19.301 39.463 32.916
H 17.781 40.283 32.843
C 18.701 39.628 30.898
H 17.775 39.518 30.319
C 19.715 38.611 30.41 
H 19.935 38.877 29.375
H 20.583 38.793 31.023
H 19.444 37.522 30.523
C 19.31  41.051 30.606
H 19.702 41.071 29.57 
H 20.057 41.311 31.363
C 18.136 42.15  30.497
H 17.171 41.811 30.726
H 18.292 42.504 29.468
C 18.414 43.245 31.458
H 19.23  43.842 31.079
H 18.747 42.959 32.426
C 17.165 44.135 31.698
H 16.374 43.437 31.919
C 16.77  44.893 30.354
H 16.536 44.232 29.591
H 15.982 45.603 30.528
H 17.67  45.421 29.978
C 17.448 45.023 32.87 
H 16.589 45.748 32.964
H 17.506 44.476 33.792
H 18.26  45.691 32.541
