137

Mg 30.971 28.935 36.467
C 28.808 29.106 39.098
C 28.261 29.198 34.341
H 27.581 29.178 33.542
C 33.107 28.698 33.85 
H 33.76  28.748 33.051
C 33.649 28.884 38.67 
H 34.4   28.866 39.439
N 28.726 29.161 36.68 
C 28.102 29.171 37.838
C 26.538 29.18  37.676
H 26.178 28.329 38.323
C 26.38  28.875 36.152
H 25.785 29.617 35.736
C 27.83  29.119 35.7  
C 25.894 27.439 35.774
H 24.899 27.31  36.155
H 25.76  27.339 34.736
H 26.544 26.657 36.251
C 26.018 30.585 38.096
H 26.032 31.23  37.232
H 26.614 30.999 38.907
C 24.608 30.586 38.714
H 24.537 29.631 39.311
H 24.47  31.431 39.432
C 23.295 30.775 37.868
O 22.353 31.45  38.261
O 23.385 30.24  36.6  
N 30.738 29.008 34.401
C 29.571 29.12  33.761
C 29.854 29.279 32.348
C 31.256 29.225 32.189
C 31.77  28.943 33.509
C 28.728 29.353 31.277
H 27.883 28.842 31.586
H 28.454 30.347 31.005
H 29.038 28.777 30.453
C 32.065 29.348 30.971
H 33.108 29.264 31.16 
C 31.698 29.595 29.723
H 30.607 29.71  29.453
H 32.35  29.828 28.853
N 33.042 28.81  36.262
C 33.738 28.679 35.138
C 35.145 28.48  35.454
C 35.278 28.588 36.784
C 33.937 28.806 37.306
C 36.296 28.464 34.551
H 35.92  28.595 33.502
H 37.053 29.227 34.695
H 36.864 27.526 34.549
C 36.504 28.628 37.672
H 36.326 28.125 38.608
H 37.341 28.273 37.156
C 36.862 30.039 38.198
H 36.073 30.581 38.725
H 37.632 29.902 38.921
H 37.246 30.666 37.373
N 31.218 29.111 38.39 
C 32.38  28.981 39.181
C 32.043 28.886 40.583
C 30.661 28.881 40.569
C 30.187 29.089 39.292
C 32.992 28.875 41.817
H 32.326 28.693 42.736
H 33.689 28.057 41.676
H 33.541 29.767 42.006
C 29.549 28.846 41.453
O 29.519 28.883 42.697
C 28.241 28.978 40.498
H 27.655 29.767 40.914
C 27.424 27.732 40.681
O 27.844 26.598 40.436
O 26.148 28.012 41.09 
C 25.404 26.86  41.565
H 24.459 27.211 41.961
H 25.227 26.05  40.836
H 25.963 26.431 42.434
C 22.199 30.43  35.804
H 22.16  31.4   35.329
H 21.291 30.348 36.378
C 22.259 29.436 34.655
H 23.113 29.601 33.99 
C 21.334 28.513 34.226
C 20.022 28.083 34.866
H 19.861 28.65  35.77 
H 19.097 28.141 34.282
H 20.003 26.991 35.115
C 21.669 27.685 32.964
H 22.61  27.948 32.453
H 20.788 27.846 32.369
C 21.912 26.257 33.243
H 21.097 25.723 33.748
H 22.791 26.289 33.93 
C 22.283 25.446 31.998
H 23.281 25.109 32.055
H 22.341 26.101 31.147
C 21.454 24.155 31.663
H 21.571 23.404 32.479
C 22.073 23.431 30.407
H 23.059 23.171 30.79 
H 21.49  22.543 30.146
H 22.079 24.096 29.566
C 19.89  24.42  31.647
H 19.604 24.733 32.671
H 19.406 23.467 31.408
C 19.355 25.465 30.547
H 19.992 25.283 29.636
H 19.539 26.464 30.844
C 17.925 25.15  30.075
H 17.66  24.136 30.288
H 18.067 25.282 28.985
C 16.785 26.057 30.537
H 16.922 27.079 30.29 
C 16.764 26.148 32.119
H 16.965 25.142 32.622
H 17.615 26.807 32.451
H 15.849 26.68  32.44 
C 15.372 25.626 30.194
H 14.977 24.882 30.907
H 15.47  25.163 29.221
C 14.301 26.792 29.982
H 13.896 26.52  28.968
H 14.712 27.819 29.872
C 13.132 26.69  30.971
H 13.203 25.761 31.525
H 12.187 26.799 30.498
C 12.935 27.774 32.036
H 13.831 27.935 32.587
C 11.818 27.476 33.024
H 12.148 26.649 33.655
H 11.695 28.307 33.666
H 10.875 27.219 32.524
C 12.67  29.117 31.447
H 12.376 29.854 32.206
H 13.553 29.479 31.049
H 11.852 29.05  30.744
