137

Mg 22.235 17.314 26.06 
C 24.152 18.218 23.359
C 24.638 18.598 28.1  
H 25.371 19.015 28.716
C 20.378 16.427 28.768
H 19.872 16.018 29.666
C 19.904 15.933 23.925
H 19.157 15.477 23.324
N 24.095 18.399 25.721
C 24.684 18.689 24.582
C 25.963 19.527 24.756
H 26.865 19.113 24.346
C 26.189 19.501 26.301
H 26.317 20.52  26.793
C 24.912 18.797 26.764
C 27.518 18.709 26.696
H 27.366 17.625 26.707
H 28.46  19.024 26.261
H 27.627 19.063 27.722
C 25.79  21.008 24.249
H 24.953 21.439 24.663
H 25.635 21.085 23.195
C 26.986 21.894 24.564
H 27.842 21.251 24.806
H 27.305 22.493 23.762
C 26.916 22.972 25.72 
O 27.861 23.131 26.459
O 25.879 23.81  25.606
N 22.456 17.452 28.147
C 23.503 18.097 28.769
C 23.25  18.127 30.217
C 22.137 17.371 30.455
C 21.581 17.039 29.092
C 24.208 18.736 31.259
H 25.234 18.761 30.91 
H 23.981 19.717 31.534
H 24.193 18.092 32.145
C 21.318 17.143 31.694
H 20.66  16.264 31.691
C 21.387 17.91  32.806
H 21.932 18.843 32.814
H 20.771 17.663 33.717
N 20.438 16.488 26.297
C 19.876 16.163 27.512
C 18.537 15.534 27.282
C 18.407 15.418 25.856
C 19.581 15.992 25.292
C 17.607 15.163 28.377
H 16.573 15.37  27.962
H 17.699 14.084 28.556
H 17.727 15.778 29.267
C 17.201 14.872 25.059
H 17.448 14.165 24.279
H 16.455 14.446 25.738
C 16.398 15.978 24.413
H 16.001 16.601 25.246
H 17.048 16.517 23.715
H 15.567 15.461 23.865
N 22.011 17.115 24.068
C 21.076 16.411 23.267
C 21.391 16.445 21.902
C 22.593 17.219 21.885
C 22.939 17.53  23.221
C 20.561 15.814 20.773
H 19.999 14.924 21.046
H 19.753 16.47  20.391
H 21.264 15.471 19.988
C 23.639 17.745 20.962
O 23.766 17.615 19.737
C 24.594 18.583 21.976
H 24.45  19.649 21.863
C 26.006 18.27  21.666
O 26.695 17.293 21.988
O 26.508 19.213 20.765
C 27.849 19.002 20.251
H 28.099 19.6   19.307
H 28.501 19.299 21.093
H 27.994 17.955 19.894
C 25.788 24.892 26.57 
H 26.224 25.8   26.126
H 26.241 24.638 27.58 
C 24.319 25.033 26.79 
H 23.874 24.142 27.258
C 23.492 26.047 26.581
C 23.778 27.303 25.759
H 23.023 27.396 25.028
H 23.73  28.124 26.44 
H 24.722 27.285 25.34 
C 22.008 25.728 26.855
H 22.011 24.678 26.924
H 21.47  25.958 25.962
C 21.394 26.202 28.123
H 22.176 26.837 28.52 
H 21.382 25.331 28.78 
C 20.089 26.872 28.16 
H 19.481 26.48  28.979
H 19.585 26.601 27.215
C 20.225 28.397 28.33 
H 20.987 28.785 27.66 
C 20.842 28.844 29.65 
H 20.829 29.918 29.736
H 20.129 28.571 30.367
H 21.834 28.435 29.74 
C 18.877 29.145 27.997
H 18.956 30.161 28.321
H 18.154 28.703 28.606
C 18.282 29.074 26.576
H 17.267 28.844 26.738
H 18.804 28.24  26.019
C 18.401 30.314 25.68 
H 18.795 30.075 24.649
H 19.148 30.958 26.18 
C 17.022 31.059 25.631
H 16.248 30.542 25.049
C 17.275 32.261 24.708
H 17.848 33.033 25.278
H 17.739 32.122 23.716
H 16.339 32.757 24.466
C 16.538 31.465 27.093
H 17.248 32.217 27.327
H 16.708 30.757 27.859
C 15.183 32.2   27.195
H 14.744 32.148 26.207
H 15.388 33.233 27.355
C 14.298 31.569 28.294
H 14.788 30.73  28.791
H 13.392 31.152 27.767
C 13.652 32.55  29.249
H 14.299 33.239 29.774
C 12.835 31.758 30.379
H 13.563 31.032 30.749
H 12.466 32.342 31.185
H 12.056 31.073 29.946
C 12.656 33.524 28.537
H 13.193 34.45  28.177
H 12.069 33.072 27.744
H 12.006 33.88  29.311
