137

Mg 20.59  21.311 32.455
C 23.507 19.725 31.731
C 22.42  23.841 34.035
H 23.001 24.531 34.583
C 17.768 22.99  33.074
H 16.843 23.489 33.216
C 18.934 18.929 30.627
H 18.364 18.288 29.998
N 22.696 21.703 32.696
C 23.757 20.994 32.195
C 25.103 21.621 32.461
H 25.818 20.905 32.938
C 24.704 22.749 33.473
H 24.919 23.711 33.092
C 23.165 22.789 33.397
C 25.355 22.602 34.824
H 24.923 21.84  35.396
H 26.445 22.376 34.702
H 25.067 23.522 35.368
C 25.717 22.157 31.071
H 25.079 22.936 30.615
H 25.831 21.36  30.299
C 27.178 22.702 31.217
H 27.639 22.529 32.182
H 27.752 22.093 30.532
C 27.524 24.152 30.76 
O 28.442 24.501 30.068
O 26.533 25.005 31.187
N 20.184 23.159 33.465
C 21.056 24.078 33.995
C 20.376 25.175 34.659
C 19.046 24.935 34.381
C 18.952 23.621 33.647
C 21.067 26.342 35.318
H 20.297 26.919 35.923
H 21.772 25.989 35.93 
H 21.527 27.043 34.588
C 17.857 25.71  34.632
H 16.986 25.136 34.837
C 17.787 27.083 34.777
H 18.558 27.79  34.463
H 16.784 27.457 35.003
N 18.669 20.993 31.953
C 17.591 21.793 32.346
C 16.291 21.258 31.747
C 16.778 20.195 30.92 
C 18.196 19.955 31.172
C 14.974 21.837 31.933
H 14.708 22.168 32.92 
H 14.76  22.676 31.295
H 14.377 20.995 31.625
C 15.927 19.36  29.955
H 15.148 19.962 29.544
H 16.58  19.13  29.097
C 15.273 18.203 30.673
H 14.364 17.964 30.22 
H 15.93  17.349 30.698
H 15.024 18.529 31.664
N 21.037 19.663 31.42 
C 20.262 18.682 30.76 
C 21.055 17.546 30.396
C 22.399 17.984 30.685
C 22.269 19.233 31.376
C 20.51  16.296 29.675
H 20.937 16.274 28.627
H 20.833 15.456 30.194
H 19.441 16.392 29.69 
C 23.768 17.636 30.584
O 24.344 16.656 30.083
C 24.514 18.719 31.299
H 25.265 19.054 30.659
C 25.135 18.064 32.481
O 24.611 17.356 33.276
O 26.461 18.389 32.607
C 27.173 17.695 33.672
H 28.125 18.265 33.818
H 26.727 17.876 34.722
H 27.47  16.653 33.511
C 26.72 26.38 30.84
H 26.545 26.315 29.732
H 27.781 26.654 31.039
C 25.851 27.309 31.638
H 26.517 27.804 32.517
C 24.549 27.732 31.399
C 23.65  27.242 30.203
H 23.679 28.047 29.505
H 24.101 26.325 29.771
H 22.649 27.2   30.547
C 23.915 28.695 32.392
H 24.441 28.672 33.37 
H 22.947 28.457 32.739
C 23.887 30.225 31.965
H 24.233 30.334 30.937
H 24.63  30.711 32.568
C 22.516 30.869 32.069
H 21.706 30.107 32.082
H 22.423 31.467 31.141
C 22.359 31.728 33.414
H 23.317 32.313 33.41 
C 22.374 30.915 34.735
H 21.582 30.129 34.553
H 23.305 30.327 34.94 
H 22.123 31.497 35.648
C 21.152 32.688 33.237
H 21.312 33.399 34.089
H 20.258 32.075 33.437
C 20.889 33.597 31.978
H 19.819 33.37  31.791
H 21.467 33.29  31.081
C 21.15  35.119 32.165
H 21.482 35.31  33.225
H 20.239 35.662 31.951
C 22.241 35.713 31.268
H 21.898 35.561 30.251
C 23.609 35.11  31.504
H 23.984 35.102 32.525
H 23.696 34.112 31.172
H 24.261 35.685 30.887
C 22.267 37.316 31.376
H 22.94  37.479 32.172
H 21.242 37.568 31.651
C 22.533 38.208 30.204
H 21.647 38.72  29.99 
H 22.874 37.66  29.294
C 23.479 39.383 30.499
H 24.455 39.16  30.027
H 23.788 39.294 31.576
C 23.143 40.804 30.08 
H 22.946 40.834 28.99 
C 24.302 41.777 30.36 
H 24.252 42.617 29.693
H 24.26  42.036 31.421
H 25.288 41.375 30.032
C 21.88  41.459 30.708
H 22.02  41.643 31.742
H 21.471 42.344 30.36 
H 21.106 40.663 30.596
