137

Mg 28.653 30.681 33.233
C 28.21  27.355 32.458
C 28.59  31.383 29.92 
H 28.447 31.703 28.877
C 28.567 34.041 33.925
H 28.432 35.115 34.188
C 28.569 29.926 36.591
H 28.243 29.762 37.609
N 28.322 29.502 31.474
C 28.116 28.188 31.36 
C 27.916 27.669 29.974
H 28.725 26.908 29.866
C 28.302 28.92  29.103
H 27.534 29.239 28.41 
C 28.462 30.039 30.226
C 29.696 28.595 28.416
H 30.454 28.478 29.237
H 29.628 27.683 27.833
H 30.058 29.406 27.838
C 26.519 27.06  29.647
H 25.675 27.652 30.021
H 26.495 26.231 30.269
C 26.316 26.727 28.169
H 25.227 26.612 27.944
H 26.698 27.423 27.424
C 27.002 25.418 27.707
O 28.035 25.38  27.013
O 26.167 24.318 27.925
N 28.7   32.469 32.113
C 28.643 32.517 30.733
C 28.494 33.864 30.31 
C 28.426 34.719 31.394
C 28.593 33.76  32.613
C 28.402 34.278 28.891
H 28.428 35.338 28.676
H 29.286 33.808 28.429
H 27.454 33.93  28.476
C 28.064 36.184 31.378
H 27.512 36.583 30.549
C 28.434 37.045 32.331
H 29.183 36.687 33.084
H 28.194 38.131 32.419
N 28.681 31.831 34.943
C 28.563 33.201 35.033
C 28.412 33.583 36.393
C 28.517 32.405 37.131
C 28.591 31.28  36.205
C 28.147 35.022 36.886
H 28.684 35.28  37.747
H 28.402 35.789 36.129
H 27.054 35.003 37.007
C 28.373 32.241 38.615
H 28.842 31.276 38.89 
H 28.919 32.92  39.228
C 26.91  32.143 39.001
H 26.257 32.716 38.254
H 26.463 31.172 38.975
H 26.744 32.548 39.984
N 28.489 28.902 34.37 
C 28.544 28.73  35.743
C 28.404 27.264 36.01 
C 28.323 26.673 34.77 
C 28.432 27.717 33.833
C 28.165 26.489 37.285
H 29.126 26.569 37.877
H 27.36  26.926 37.795
H 27.924 25.449 37.137
C 28.023 25.502 34.028
O 27.704 24.364 34.401
C 28.013 25.844 32.54 
H 27.019 25.552 32.317
C 29.1   25.002 31.953
O 30.294 25.335 32.029
O 28.613 24.018 31.116
C 29.653 23.275 30.274
H 30.265 23.918 29.698
H 30.273 22.688 30.916
H 29.087 22.577 29.623
C 26.401 23.177 27.002
H 27.181 22.623 27.508
H 26.739 23.577 26.045
C 25.043 22.455 26.924
H 24.397 22.55  27.76 
C 24.372 21.862 25.881
C 25.041 21.548 24.574
H 26.064 21.971 24.66 
H 24.935 20.453 24.509
H 24.398 22.061 23.849
C 23.053 21.19  26.065
H 22.874 20.814 27.054
H 22.939 20.292 25.466
C 21.95  22.194 25.593
H 21.301 21.782 24.788
H 22.358 23.03  25.099
C 20.979 22.601 26.707
H 20.835 23.656 26.464
H 21.632 22.509 27.569
C 19.587 21.973 26.862
H 19.169 21.667 25.925
C 18.558 23.117 27.371
H 18.944 23.646 28.22 
H 18.399 23.738 26.517
H 17.557 22.719 27.643
C 19.803 20.626 27.683
H 20.635 20.144 27.269
H 18.96  19.97  27.387
C 19.934 20.751 29.2  
H 18.959 20.982 29.728
H 20.539 21.639 29.396
C 20.673 19.534 29.94 
H 20.701 18.799 29.14 
H 20.022 19.18  30.735
C 22.094 19.733 30.594
H 21.948 20.721 31.167
C 23.194 20.195 29.662
H 23.421 19.556 28.814
H 22.931 21.137 29.23 
H 24.162 20.334 30.127
C 22.608 18.593 31.565
H 23.674 18.657 31.575
H 22.527 17.603 31.106
C 22.062 18.613 32.949
H 21.48  19.519 32.957
H 22.96  18.685 33.606
C 21.426 17.263 33.371
H 22.105 16.741 33.997
H 21.259 16.631 32.53 
C 19.996 17.397 34.054
H 19.366 17.822 33.312
C 20.052 18.167 35.436
H 19.124 18.503 35.7  
H 20.509 17.57  36.257
H 20.689 19.035 35.288
C 19.34  16.028 34.318
H 20.031 15.294 34.759
H 18.468 16.054 34.947
H 18.905 15.718 33.37 
