137

Mg 20.762 23.45  30.412
C 23.722 21.843 29.925
C 22.332 25.8   32.263
H 22.905 26.607 32.713
C 18.012 25.441 30.115
H 17.124 26.093 30.183
C 19.197 21.069 28.462
H 18.703 20.269 27.944
N 22.773 23.687 31.165
C 23.811 22.904 30.846
C 25.194 23.478 31.341
H 25.604 22.648 31.893
C 24.711 24.645 32.253
H 25.167 25.605 32.065
C 23.198 24.718 31.891
C 24.921 24.401 33.749
H 24.241 23.573 34.122
H 25.941 24.08  33.87 
H 24.72  25.411 34.236
C 26.09  24.012 30.229
H 25.622 24.684 29.588
H 26.327 23.217 29.629
C 27.524 24.369 30.63 
H 27.612 24.191 31.713
H 28.276 23.71  30.172
C 27.993 25.778 30.36 
O 28.701 26.14  29.411
O 27.335 26.683 31.204
N 20.186 25.249 31.214
C 21.011 26.06  31.916
C 20.251 27.237 32.328
C 18.913 27.17  31.736
C 19.032 25.909 30.94 
C 20.844 28.275 33.265
H 21.39  27.903 34.113
H 21.512 28.832 32.568
H 20.059 28.823 33.745
C 17.844 28.063 31.879
H 16.809 27.705 31.94 
C 17.909 29.425 31.935
H 18.822 29.989 32.067
H 17.04  29.964 31.969
N 18.994 23.26  29.427
C 18.005 24.197 29.483
C 16.757 23.596 28.87 
C 17.103 22.323 28.426
C 18.504 22.182 28.785
C 15.356 24.256 28.845
H 14.861 23.952 27.913
H 14.823 23.949 29.716
H 15.364 25.319 28.773
C 16.21  21.234 27.754
H 15.263 21.716 27.362
H 16.836 20.766 27.004
C 15.973 20.048 28.759
H 15.382 20.399 29.596
H 15.588 19.085 28.279
H 16.87  19.774 29.161
N 21.259 21.71  29.519
C 20.523 20.824 28.704
C 21.383 19.82  28.205
C 22.68  20.218 28.688
C 22.513 21.337 29.478
C 21.015 18.641 27.344
H 20.278 18.031 27.854
H 20.435 18.996 26.508
H 21.852 17.979 26.984
C 24.057 19.896 28.616
O 24.677 19.078 27.99 
C 24.783 20.965 29.476
H 25.533 21.35  28.767
C 25.413 20.197 30.563
O 24.847 19.784 31.573
O 26.689 19.806 30.262
C 27.358 18.873 31.269
H 27.433 19.361 32.193
H 26.817 17.929 31.295
H 28.344 18.606 30.977
C 27.636 28.062 30.77 
H 27.201 28.18  29.781
H 28.728 28.32  30.734
C 27.005 29.015 31.82 
H 27.66  29.091 32.663
C 25.91  29.799 31.731
C 24.972 29.786 30.444
H 23.955 29.964 30.819
H 25.333 30.554 29.725
H 24.935 28.862 30.032
C 25.6   30.835 32.83 
H 26.277 30.648 33.641
H 24.572 30.595 33.281
C 25.764 32.313 32.545
H 26.181 32.45  31.569
H 26.616 32.551 33.206
C 24.503 33.178 32.623
H 23.564 32.659 32.853
H 24.413 33.51  31.577
C 24.592 34.439 33.629
H 25.558 34.869 33.464
C 24.449 34.021 35.072
H 23.468 33.561 35.263
H 25.13  33.125 35.262
H 24.727 34.874 35.699
C 23.563 35.549 33.252
H 23.402 36.282 34.093
H 22.536 35.082 33.181
C 23.903 36.236 31.889
H 23.087 35.995 31.191
H 24.77  35.908 31.388
C 23.982 37.738 32.025
H 24.914 38.09  31.659
H 24.06  37.955 33.081
C 22.851 38.588 31.384
H 21.833 38.203 31.586
C 22.906 38.579 29.779
H 23.33  37.601 29.502
H 21.901 38.803 29.407
H 23.541 39.346 29.414
C 22.79  40.084 31.92 
H 23.657 40.63  31.484
H 22.88  40.044 32.996
C 21.423 40.74  31.7  
H 20.569 40.048 31.477
H 21.553 41.245 30.788
C 20.931 41.542 32.905
H 21.763 41.94  33.419
H 20.369 40.843 33.518
C 20.075 42.746 32.678
H 20.639 43.411 32.002
C 19.982 43.695 33.964
H 19.441 44.618 33.707
H 19.339 43.167 34.716
H 21.02  43.911 34.396
C 18.656 42.316 32.073
H 18.18 41.68 32.79
H 18.076 43.216 31.985
H 18.787 41.919 31.031
