137

Mg 20.273 26.646 32.371
C 23.182 25.384 33.701
C 20.581 29.418 34.187
H 20.643 30.347 34.706
C 17.375 27.828 30.985
H 16.444 28.096 30.467
C 19.782 23.6   30.747
H 19.517 22.533 30.439
N 21.692 27.325 33.758
C 22.872 26.685 34.13 
C 23.696 27.529 35.046
H 23.732 26.985 35.955
C 22.681 28.751 35.334
H 23.081 29.731 35.116
C 21.576 28.504 34.338
C 22.232 28.888 36.817
H 21.502 29.639 36.952
H 21.734 28.014 37.277
H 23.133 29.054 37.45 
C 24.934 28.187 34.307
H 24.562 29.027 33.706
H 25.534 27.484 33.759
C 25.811 28.873 35.354
H 25.719 28.361 36.344
H 26.85  28.946 35.153
C 25.525 30.386 35.598
O 25.55  31.33  34.859
O 25.254 30.436 36.922
N 19.313 28.386 32.439
C 19.467 29.367 33.304
C 18.605 30.535 33.013
C 17.598 30.041 32.17 
C 18.026 28.68  31.866
C 18.796 31.893 33.642
H 18.386 32.577 32.882
H 18.332 31.864 34.66 
H 19.873 32.023 33.712
C 16.39  30.662 31.608
H 15.933 30.57  30.611
C 15.616 31.394 32.496
H 15.867 31.45  33.542
H 14.582 31.762 32.203
N 18.799 25.87  31.036
C 17.709 26.573 30.561
C 16.897 25.72  29.672
C 17.676 24.496 29.659
C 18.829 24.642 30.464
C 15.554 25.991 29.097
H 14.902 25.162 29.134
H 15.141 26.833 29.614
H 15.574 26.384 28.155
C 17.191 23.244 28.876
H 17.168 22.391 29.603
H 16.173 23.362 28.557
C 17.899 22.943 27.556
H 17.519 22.058 27.025
H 17.778 23.814 26.829
H 18.96  22.869 27.697
N 21.275 24.823 32.276
C 20.987 23.683 31.52 
C 22.109 22.727 31.623
C 23.017 23.377 32.544
C 22.329 24.57  32.904
C 22.262 21.436 30.944
H 21.711 21.352 30.041
H 23.313 21.127 30.813
H 21.848 20.727 31.674
C 24.237 23.235 33.23 
O 25.074 22.385 33.172
C 24.281 24.427 34.137
H 25.237 24.858 34.16 
C 24.081 23.99  35.543
O 23.205 23.261 35.913
O 24.907 24.638 36.423
C 24.74  24.476 37.838
H 25.012 23.475 38.013
H 25.406 25.148 38.48 
H 23.765 24.662 38.305
C 24.87  31.693 37.446
H 25.313 32.543 36.945
H 25.153 31.805 38.488
C 23.316 31.913 37.45 
H 22.808 31.165 38.002
C 22.569 32.832 36.774
C 23.171 33.916 35.864
H 23.334 33.469 34.842
H 22.453 34.794 35.84 
H 24.178 34.241 36.258
C 21.075 32.718 36.678
H 20.724 31.754 36.959
H 20.813 32.919 35.601
C 20.372 33.65  37.696
H 21.066 34.307 38.159
H 19.982 33.019 38.536
C 19.243 34.49  36.961
H 18.886 33.892 36.12 
H 19.729 35.38  36.544
C 18.04  34.948 37.843
H 18.453 35.65  38.61 
C 17.286 33.756 38.453
H 16.971 33.034 37.652
H 17.971 33.315 39.104
H 16.399 34.105 39.1  
C 17.137 35.771 36.913
H 16.154 35.929 37.395
H 16.973 35.224 35.947
C 17.503 37.268 36.669
H 18.365 37.587 37.339
H 16.645 37.89  36.947
C 17.864 37.608 35.213
H 16.863 37.759 34.756
H 18.275 36.709 34.7  
C 18.671 38.919 35.029
H 19.582 38.772 35.577
C 17.853 40.159 35.553
H 18.181 41.047 35.185
H 16.744 40.141 35.359
H 17.981 40.319 36.586
C 19.125 39.155 33.593
H 19.817 39.98  33.554
H 18.224 39.477 33.082
C 19.872 38.04  32.899
H 19.258 37.64  32.089
H 20.123 37.265 33.633
C 21.157 38.546 32.298
H 21.888 38.764 33.076
H 21.046 39.447 31.677
C 21.888 37.504 31.392
H 21.157 36.93  30.844
C 22.545 36.4   32.282
H 23.102 35.753 31.596
H 23.256 37.04  32.854
H 21.806 35.82  32.875
C 22.92  38.112 30.449
H 23.792 38.548 30.967
H 23.348 37.235 30.034
H 22.451 38.662 29.659
