137

Mg 35.976 31.255 34.773
C 34.059 29.257 32.732
C 38.605 30.708 32.591
H 39.457 30.67  31.854
C 38.011 32.858 36.838
H 38.738 33.361 37.511
C 33.249 31.317 37.041
H 32.479 31.145 37.77 
N 36.307 30.046 33.01 
C 35.368 29.495 32.27 
C 35.801 29.079 30.852
H 35.539 28.    30.867
C 37.35  29.275 30.94 
H 37.701 29.824 30.059
C 37.462 30.027 32.28 
C 38.112 27.844 31.023
H 37.63  27.306 31.814
H 38.047 27.239 30.124
H 39.098 28.181 31.251
C 35.11  29.993 29.799
H 35.711 30.867 29.643
H 34.17  30.279 30.183
C 34.808 29.283 28.468
H 35.585 29.622 27.72 
H 34.936 28.207 28.52 
C 33.436 29.599 27.842
O 33.208 30.369 26.9  
O 32.429 28.98  28.604
N 37.951 31.835 34.705
C 38.879 31.492 33.74 
C 40.165 32.169 33.984
C 39.975 32.844 35.224
C 38.637 32.531 35.642
C 41.43  32.257 33.058
H 42.334 32.618 33.534
H 41.53  31.194 32.717
H 41.247 32.923 32.196
C 40.988 33.69  35.953
H 40.964 33.746 37.034
C 41.865 34.54  35.337
H 41.921 34.785 34.229
H 42.482 35.167 36.028
N 35.668 31.921 36.604
C 36.65  32.577 37.337
C 36.22  32.787 38.684
C 34.82  32.504 38.734
C 34.53  31.829 37.419
C 36.928 33.364 39.849
H 37.623 34.141 39.518
H 36.181 34.016 40.439
H 37.439 32.577 40.385
C 33.871 32.753 39.801
H 33.361 31.823 40.072
H 34.379 33.069 40.783
C 32.683 33.621 39.443
H 32.194 33.793 40.483
H 33.144 34.521 39.073
H 31.87  33.261 38.818
N 34.009 30.539 34.88 
C 32.991 30.673 35.821
C 31.773 29.969 35.397
C 32.143 29.436 34.169
C 33.503 29.716 33.981
C 30.427 29.715 36.112
H 29.625 30.367 35.748
H 30.234 28.66  35.967
H 30.542 29.812 37.181
C 31.655 28.624 33.053
O 30.51  28.198 32.771
C 32.94  28.453 32.103
H 32.649 28.762 31.096
C 33.027 27.07  32.227
O 33.481 26.472 33.229
O 32.362 26.393 31.196
C 32.089 24.964 31.406
H 32.976 24.428 31.72 
H 31.368 24.809 32.246
H 31.773 24.519 30.442
C 31.042 28.949 28.075
H 31.097 28.711 27.026
H 30.518 29.887 28.158
C 30.216 27.93  28.852
H 30.222 28.162 29.936
C 29.767 26.748 28.467
C 29.839 26.388 26.963
H 29.738 27.347 26.476
H 30.852 25.899 26.72 
H 29.014 25.736 26.596
C 29.012 25.868 29.402
H 29.004 26.398 30.4  
H 29.513 24.897 29.473
C 27.54  25.654 28.789
H 27.519 24.542 28.545
H 27.316 26.127 27.877
C 26.455 26.083 29.794
H 25.824 26.839 29.325
H 26.905 26.47  30.694
C 25.563 24.862 30.221
H 26.132 24.063 30.587
C 24.881 24.168 29.024
H 24.065 23.643 29.416
H 24.685 24.66  28.072
H 25.513 23.289 28.85 
C 24.632 25.251 31.416
H 25.182 25.573 32.297
H 24.185 24.279 31.761
C 23.447 26.184 31.021
H 22.568 25.521 30.869
H 23.627 26.883 30.203
C 23.147 27.023 32.269
H 22.891 27.991 31.82 
H 24.025 27.255 32.791
C 22.008 26.665 33.213
H 21.31  26.145 32.581
C 21.462 27.986 33.744
H 21.231 28.636 32.965
H 20.642 27.986 34.43 
H 22.384 28.399 34.217
C 22.408 25.594 34.245
H 23.024 25.939 35.084
H 23.011 24.897 33.759
C 21.187 24.71  34.878
H 21.301 23.671 34.374
H 20.24  25.123 34.478
C 21.198 24.527 36.403
H 20.365 25.074 36.783
H 22.098 24.976 36.733
C 21.212 23.075 36.942
H 21.924 22.54  36.383
C 19.887 22.245 36.799
H 20.057 21.165 36.959
H 19.145 22.695 37.544
H 19.532 22.362 35.778
C 21.65  23.112 38.446
H 21.683 22.114 38.895
H 22.628 23.519 38.436
H 20.875 23.736 38.891
