137

Mg 36.781 34.379 35.333
C 33.354 34.918 35.836
C 35.877 31.351 33.748
H 35.615 30.353 33.343
C 40.034 33.844 34.606
H 41.061 33.819 34.295
C 37.543 37.24  36.927
H 37.699 38.216 37.354
N 34.876 33.339 34.79 
C 33.578 33.798 35.076
C 32.516 32.78  34.707
H 31.899 32.682 35.592
C 33.299 31.47  34.315
H 33.101 31.196 33.325
C 34.802 32.042 34.291
C 33.141 30.275 35.372
H 33.842 30.33  36.213
H 32.188 30.306 35.793
H 33.284 29.267 34.953
C 31.568 33.274 33.528
H 32.105 33.208 32.593
H 31.552 34.347 33.594
C 30.057 32.654 33.524
H 30.031 31.822 32.906
H 29.714 32.312 34.466
C 29.062 33.628 32.97 
O 29.257 34.826 32.806
O 27.921 32.964 32.582
N 37.766 32.946 34.326
C 37.232 31.803 33.78 
C 38.289 31.014 33.176
C 39.46  31.735 33.259
C 39.093 32.956 34.065
C 37.972 29.676 32.426
H 38.729 28.893 32.564
H 37.079 29.137 32.697
H 37.951 29.859 31.383
C 40.869 31.443 32.733
H 41.678 32.122 33.062
C 41.214 30.291 32.057
H 40.422 29.661 31.668
H 42.171 30.07  31.714
N 38.519 35.234 35.926
C 39.806 34.881 35.551
C 40.789 35.82  36.202
C 40.036 36.764 36.749
C 38.624 36.463 36.591
C 42.253 35.739 36.128
H 42.621 36.726 36.124
H 42.516 35.061 36.931
H 42.552 35.266 35.153
C 40.668 37.952 37.433
H 39.958 38.399 38.21 
H 41.553 37.748 37.979
C 40.997 39.111 36.48 
H 41.302 40.06  37.027
H 41.804 38.839 35.828
H 40.037 39.339 35.915
N 35.763 35.815 36.157
C 36.173 36.969 36.765
C 35.042 37.741 37.188
C 33.953 36.92  36.841
C 34.396 35.771 36.268
C 35.101 39.045 37.88 
H 35.975 39.063 38.488
H 35.148 39.896 37.182
H 34.269 39.337 38.557
C 32.506 36.895 36.952
O 31.732 37.718 37.489
C 32.051 35.575 36.211
H 31.427 36.001 35.456
C 31.35  34.737 37.2  
O 31.675 34.537 38.367
O 30.16  34.326 36.554
C 29.17  33.819 37.605
H 29.688 33.111 38.292
H 28.874 34.705 38.21 
H 28.318 33.257 37.174
C 26.997 33.756 31.78 
H 27.286 33.72  30.759
H 26.883 34.821 32.157
C 25.698 32.957 31.706
H 25.046 32.965 32.588
C 25.303 32.03  30.809
C 26.017 31.512 29.572
H 26.982 31.112 29.827
H 25.404 30.747 29.018
H 26.204 32.356 28.847
C 24.002 31.294 31.135
H 23.726 31.224 32.224
H 24.269 30.261 30.834
C 22.827 31.889 30.364
H 22.556 31.154 29.601
H 23.187 32.771 29.756
C 21.528 32.069 31.094
H 21.75  32.475 32.107
H 21.089 31.088 31.164
C 20.609 33.165 30.343
H 20.64  32.936 29.329
C 21.19  34.688 30.468
H 20.747 35.506 29.879
H 21.19  34.908 31.485
H 22.15  34.716 30.054
C 19.136 33.074 30.735
H 18.811 32.192 30.206
H 18.725 33.915 30.172
C 18.643 33.093 32.219
H 18.265 34.058 32.508
H 19.404 32.935 32.893
C 17.443 32.19  32.507
H 17.79  31.129 32.494
H 16.838 32.31  31.593
C 16.564 32.651 33.712
H 16.158 33.672 33.591
C 17.409 32.877 34.984
H 18.075 32.011 35.165
H 18.13  33.714 34.967
H 16.766 32.815 35.874
C 15.365 31.672 33.921
H 14.683 31.864 34.783
H 15.771 30.668 34.135
C 14.356 31.537 32.756
H 14.446 32.358 32.067
H 13.456 31.685 33.159
C 14.145 30.154 32.056
H 13.107 29.93  32.306
H 14.718 29.369 32.504
C 14.513 30.084 30.588
H 15.471 30.569 30.456
C 13.346 30.749 29.841
H 13.438 30.636 28.799
H 12.37  30.336 30.03 
H 13.22  31.807 30.115
C 14.604 28.618 30.037
H 15.036 28.636 29.035
H 15.099 27.857 30.67 
H 13.625 28.163 30.003
