137

Mg 35.034 35.818 33.976
C 32.011 35.536 32.251
C 35.628 32.542 33.362
H 35.927 31.519 32.994
C 37.528 35.827 36.303
H 38.368 35.771 36.995
C 34.099 38.987 35.023
H 33.789 40.    35.193
N 33.94  34.242 32.855
C 32.766 34.338 32.168
C 32.334 33.082 31.448
H 31.472 32.605 31.95 
C 33.624 32.169 31.804
H 34.222 31.952 30.941
C 34.458 32.983 32.756
C 33.209 30.839 32.466
H 32.97  30.976 33.575
H 32.429 30.369 31.882
H 34.044 30.177 32.484
C 32.203 33.219 29.894
H 33.092 33.653 29.432
H 31.416 33.9   29.725
C 31.92  31.957 29.116
H 32.852 31.735 28.552
H 31.66  31.141 29.863
C 30.768 31.933 28.09 
O 30.851 32.36  26.948
O 29.623 31.329 28.654
N 36.339 34.388 34.753
C 36.465 33.106 34.329
C 37.658 32.45  34.89 
C 38.136 33.4   35.799
C 37.38  34.603 35.609
C 38.163 31.09  34.571
H 37.998 30.568 35.493
H 37.65  30.587 33.752
H 39.178 31.136 34.294
C 39.329 33.286 36.612
H 39.894 34.193 36.814
C 39.959 32.171 36.961
H 39.477 31.192 36.808
H 40.844 32.153 37.595
N 35.837 37.259 35.269
C 36.902 37.064 36.126
C 37.213 38.315 36.911
C 36.232 39.266 36.432
C 35.316 38.531 35.503
C 38.304 38.336 37.83 
H 38.33  39.187 38.602
H 38.388 37.405 38.373
H 39.248 38.353 37.309
C 36.09  40.744 36.71 
H 35.149 40.944 37.281
H 36.868 40.967 37.42 
C 36.258 41.604 35.49 
H 37.306 41.302 35.198
H 35.595 41.307 34.661
H 36.155 42.677 35.732
N 33.523 37.063 33.608
C 33.265 38.32  34.166
C 31.993 38.755 33.729
C 31.493 37.749 32.939
C 32.425 36.728 32.937
C 31.387 40.074 33.963
H 31.197 40.588 33.056
H 30.404 39.964 34.517
H 31.994 40.784 34.475
C 30.389 37.43  32.032
O 29.496 38.107 31.542
C 30.551 35.862 31.726
H 30.567 35.495 30.708
C 29.446 35.216 32.512
O 29.205 35.521 33.65 
O 28.88  34.074 31.919
C 27.826 33.365 32.665
H 27.228 32.635 32.217
H 28.24  33.042 33.6  
H 27.145 34.22  32.834
C 28.495 31.239 27.804
H 28.596 30.595 26.938
H 28.32  32.237 27.382
C 27.287 30.992 28.731
H 27.337 31.435 29.707
C 26.359 30.054 28.639
C 26.037 29.01  27.515
H 26.82  29.02  26.739
H 25.996 27.945 27.972
H 25.084 29.089 26.968
C 25.672 29.767 29.981
H 26.312 30.274 30.836
H 25.755 28.679 30.091
C 24.245 30.264 30.041
H 23.964 30.466 29.026
H 24.145 31.175 30.634
C 23.3   29.162 30.636
H 22.787 29.626 31.485
H 23.96  28.294 30.98 
C 22.153 28.583 29.787
H 22.673 28.03  28.949
C 21.185 29.649 29.085
H 20.535 29.042 28.563
H 20.757 30.28  29.848
H 21.753 30.248 28.408
C 21.373 27.361 30.509
H 22.093 26.511 30.629
H 20.562 26.921 29.906
C 20.74  27.703 31.875
H 19.775 27.233 31.902
H 20.55  28.803 31.852
C 21.592 27.382 33.149
H 22.055 28.278 33.376
H 22.348 26.561 33.07 
C 20.592 27.059 34.308
H 19.919 26.339 33.736
C 19.707 28.285 34.734
H 18.974 27.958 35.521
H 20.289 29.107 35.166
H 19.159 28.613 33.935
C 21.216 26.389 35.515
H 20.693 26.539 36.418
H 22.158 26.864 35.715
C 21.505 24.859 35.323
H 22.613 24.681 35.344
H 21.086 24.421 34.443
C 21.01  24.115 36.641
H 21.072 24.769 37.523
H 21.79  23.315 36.628
C 19.664 23.357 36.62 
H 19.941 22.365 36.138
C 18.553 24.226 35.946
H 17.564 23.784 36.001
H 18.586 25.221 36.414
H 18.787 24.465 34.898
C 19.247 23.011 38.037
H 19.057 23.941 38.574
H 18.384 22.382 37.996
H 20.069 22.394 38.506
