137

Mg 36.069 34.417 35.237
C 33.396 32.908 33.764
C 38.142 32.686 32.918
H 38.772 32.098 32.28 
C 38.757 35.852 36.593
H 39.587 36.246 37.069
C 34.038 35.614 37.807
H 33.383 35.896 38.596
N 35.788 33.139 33.475
C 34.583 32.658 33.047
C 34.744 31.858 31.744
H 34.114 30.984 31.846
C 36.223 31.412 31.802
H 36.694 31.454 30.823
C 36.755 32.523 32.722
C 36.369 29.992 32.315
H 37.408 29.651 32.452
H 35.761 29.927 33.194
H 35.873 29.472 31.521
C 34.355 32.587 30.408
H 34.93  33.465 30.241
H 33.422 33.003 30.669
C 34.179 31.635 29.242
H 34.447 32.228 28.338
H 34.909 30.862 29.243
C 32.814 30.979 29.127
O 32.48  29.824 29.464
O 31.858 31.935 28.723
N 38.107 34.429 34.711
C 38.767 33.574 33.809
C 40.157 33.704 33.997
C 40.409 34.725 34.97 
C 39.061 35.129 35.458
C 41.168 32.768 33.237
H 40.915 31.712 33.379
H 41.387 32.995 32.234
H 42.106 32.869 33.827
C 41.651 35.169 35.608
H 41.676 35.512 36.65 
C 42.806 35.297 34.92 
H 42.797 35.219 33.794
H 43.815 35.656 35.236
N 36.348 35.556 36.956
C 37.562 36.055 37.335
C 37.392 36.902 38.466
C 36.038 36.849 38.78 
C 35.374 36.    37.844
C 38.514 37.572 39.306
H 38.588 38.679 39.116
H 38.481 37.466 40.347
H 39.441 37.131 39.064
C 35.385 37.473 39.949
H 35.026 36.647 40.613
H 36.2   38.069 40.507
C 34.265 38.432 39.626
H 34.575 39.461 39.265
H 33.619 37.953 38.941
H 33.741 38.459 40.577
N 34.155 34.327 35.696
C 33.434 34.798 36.827
C 32.113 34.221 36.776
C 31.976 33.616 35.547
C 33.266 33.632 34.973
C 31.161 34.183 37.907
H 31.22  33.299 38.616
H 31.408 35.067 38.469
H 30.169 34.322 37.57 
C 31.1   32.863 34.691
O 29.908 32.591 34.759
C 32.02  32.424 33.501
H 31.641 32.773 32.554
C 31.967 30.892 33.513
O 32.209 30.189 34.505
O 31.674 30.346 32.312
C 31.627 28.926 32.199
H 32.649 28.578 32.151
H 31.1   28.531 33.051
H 31.095 28.587 31.301
C 30.475 31.397 28.658
H 30.234 30.601 29.395
H 30.276 31.085 27.637
C 29.631 32.65  28.917
H 30.102 33.565 28.527
C 28.606 32.865 29.791
C 27.861 31.855 30.637
H 28.16  31.983 31.67 
H 26.751 31.982 30.624
H 28.047 30.848 30.395
C 28.232 34.314 29.938
H 29.158 34.889 30.304
H 27.569 34.358 30.803
C 27.563 35.067 28.752
H 27.73  34.492 27.845
H 27.996 35.987 28.597
C 26.028 35.208 28.955
H 25.87  36.266 29.223
H 25.718 34.667 29.778
C 25.127 35.082 27.705
H 25.346 34.214 27.125
C 25.467 36.272 26.737
H 25.167 37.171 27.251
H 26.536 36.325 26.489
H 25.043 36.014 25.765
C 23.58  35.169 28.124
H 22.994 35.268 27.204
H 23.54  36.12  28.704
C 23.133 33.94  28.952
H 22.892 34.371 29.921
H 23.954 33.25  29.197
C 21.978 33.156 28.323
H 22.268 32.148 28.402
H 21.876 33.471 27.321
C 20.673 33.2   29.039
H 20.419 34.206 29.257
C 20.813 32.411 30.338
H 19.829 32.478 30.715
H 20.995 31.402 29.946
H 21.59  32.67  31.027
C 19.465 32.591 28.124
H 19.634 31.507 28.071
H 19.609 32.909 27.046
C 17.965 32.951 28.436
H 17.412 33.239 27.571
H 18.052 33.867 29.014
C 17.283 31.759 29.161
H 17.294 31.924 30.215
H 17.926 30.879 29.024
C 15.888 31.46  28.553
H 16.025 31.382 27.434
C 14.982 32.62  28.827
H 14.089 32.527 28.175
H 14.643 32.535 29.842
H 15.352 33.603 28.529
C 15.299 30.128 29.096
H 14.298 29.923 28.87 
H 15.911 29.313 28.805
H 15.318 30.211 30.16 
