137

Mg 21.398 16.47  25.651
C 22.706 17.673 22.815
C 23.608 18.36  27.504
H 24.422 18.9   28.031
C 19.734 15.71  28.476
H 19.399 15.341 29.411
C 19.072 14.525 23.796
H 18.475 13.846 23.143
N 22.975 17.811 25.173
C 23.383 18.193 23.891
C 24.657 19.129 23.951
H 25.515 18.814 23.403
C 25.027 19.004 25.507
H 25.173 20.002 25.953
C 23.756 18.415 26.141
C 26.288 18.154 25.767
H 25.962 17.106 25.766
H 26.995 18.355 25.022
H 26.841 18.332 26.716
C 24.299 20.558 23.531
H 23.752 21.04  24.292
H 23.773 20.49  22.581
C 25.536 21.422 23.234
H 26.5   20.89  23.379
H 25.495 21.691 22.154
C 25.749 22.841 23.808
O 26.796 23.506 23.869
O 24.579 23.398 24.208
N 21.577 17.067 27.638
C 22.524 17.898 28.221
C 22.306 18.049 29.687
C 21.068 17.371 29.951
C 20.754 16.682 28.669
C 23.253 18.796 30.658
H 23.829 19.501 30.194
H 22.576 19.365 31.315
H 23.9   18.145 31.203
C 20.317 17.19  31.214
H 19.344 16.664 31.08 
C 20.708 17.369 32.507
H 21.526 17.953 32.758
H 19.991 17.192 33.258
N 19.808 15.226 26.058
C 19.29  15.016 27.301
C 18.31  14.031 27.32 
C 18.074 13.736 25.963
C 19.013 14.522 25.171
C 17.584 13.415 28.494
H 16.551 13.788 28.662
H 17.528 12.364 28.471
H 18.138 13.483 29.409
C 17.167 12.69  25.262
H 17.793 12.05  24.636
H 16.715 11.973 25.953
C 16.015 13.249 24.405
H 16.292 13.895 23.577
H 15.562 12.384 23.982
H 15.272 13.774 25.051
N 20.913 16.146 23.751
C 19.956 15.388 23.106
C 20.132 15.442 21.652
C 21.215 16.397 21.543
C 21.58  16.802 22.805
C 19.356 14.626 20.612
H 19.863 14.645 19.677
H 19.219 13.598 20.885
H 18.398 15.084 20.308
C 21.964 16.993 20.524
O 21.891 16.973 19.254
C 23.016 17.887 21.284
H 22.899 18.933 21.025
C 24.323 17.37  20.783
O 24.715 16.2   20.978
O 25.127 18.385 20.315
C 26.519 18.063 20.107
H 26.619 17.54  19.225
H 26.998 18.993 19.964
H 27.055 17.521 20.912
C 24.77  24.774 24.551
H 25.252 25.349 23.784
H 25.547 24.904 25.338
C 23.497 25.21  25.118
H 23.187 24.619 26.035
C 22.744 26.204 24.644
C 23.017 27.123 23.432
H 23.946 26.855 22.831
H 22.238 26.967 22.711
H 23.004 28.224 23.733
C 21.406 26.34  25.445
H 20.937 25.392 25.496
H 20.772 26.888 24.768
C 21.338 26.878 26.872
H 22.31  27.049 27.299
H 20.997 26.117 27.453
C 20.29  27.99  27.116
H 19.493 27.637 27.847
H 19.732 28.128 26.166
C 20.832 29.346 27.626
H 21.727 29.576 26.944
C 21.405 29.165 29.121
H 21.776 30.156 29.51 
H 20.627 28.788 29.706
H 22.213 28.396 29.196
C 19.765 30.502 27.659
H 20.126 31.42  28.232
H 18.921 30.19  28.25 
C 19.173 31.031 26.331
H 18.11  31.028 26.462
H 19.396 30.269 25.575
C 19.695 32.452 25.826
H 20.133 32.187 24.877
H 20.528 32.808 26.391
C 18.667 33.644 25.686
H 17.78  33.289 25.219
C 19.338 34.804 24.857
H 20.135 35.197 25.487
H 19.748 34.395 23.883
H 18.719 35.63  24.748
C 18.077 34.141 27.039
H 18.781 34.878 27.198
H 18.204 33.407 27.845
C 16.642 34.626 26.958
H 16.344 34.782 25.89 
H 16.656 35.56  27.408
C 15.706 33.634 27.671
H 16.151 32.656 27.465
H 14.83  33.636 27.075
C 15.394 33.907 29.12 
H 16.346 34.048 29.553
C 14.698 32.69  29.762
H 15.283 31.821 29.392
H 14.713 32.791 30.905
H 13.667 32.646 29.426
C 14.535 35.181 29.362
H 14.858 35.977 28.726
H 13.468 35.001 29.397
H 14.792 35.518 30.385
