137

Mg 28.772 28.564 32.451
C 27.346 26.305 30.28 
C 31.627 28.32  30.564
H 32.535 28.177 29.949
C 30.361 30.462 34.688
H 30.692 31.317 35.26 
C 25.988 28.444 34.399
H 25.196 28.509 35.112
N 29.368 27.445 30.738
C 28.555 26.766 29.883
C 29.164 26.393 28.533
H 29.001 25.321 28.379
C 30.671 26.669 28.819
H 31.083 27.312 28.019
C 30.584 27.502 30.124
C 31.586 25.438 28.814
H 31.29  24.767 29.619
H 31.65  24.982 27.797
H 32.596 25.905 29.06 
C 28.43  27.108 27.434
H 28.651 28.175 27.381
H 27.378 26.988 27.667
C 28.645 26.542 25.964
H 29.248 27.325 25.33 
H 29.334 25.695 26.023
C 27.358 26.176 25.258
O 27.032 26.634 24.162
O 26.613 25.303 25.957
N 30.681 29.18  32.671
C 31.673 29.095 31.776
C 32.821 29.943 32.067
C 32.489 30.47  33.378
C 31.129 30.    33.659
C 34.025 30.319 31.093
H 34.954 29.84  31.334
H 33.648 29.977 30.114
H 34.132 31.374 31.098
C 33.257 31.386 34.266
H 32.745 31.819 35.109
C 34.589 31.707 34.098
H 35.071 31.271 33.23 
H 35.166 32.364 34.792
N 28.302 29.176 34.278
C 29.093 29.986 35.027
C 28.438 30.274 36.258
C 27.098 29.945 36.025
C 27.068 29.148 34.825
C 29.085 31.08  37.374
H 30.181 31.038 37.383
H 28.885 32.127 37.138
H 28.626 30.879 38.341
C 26.047 30.3   37.043
H 25.714 29.411 37.52 
H 26.463 30.993 37.818
C 24.75  30.941 36.553
H 24.325 30.404 35.711
H 24.1   30.961 37.397
H 25.025 32.013 36.355
N 27.052 27.608 32.416
C 25.972 27.728 33.259
C 24.898 26.855 32.815
C 25.387 26.229 31.726
C 26.69  26.775 31.47 
C 23.542 26.624 33.526
H 22.998 27.606 33.671
H 23.044 25.935 32.874
H 23.747 26.128 34.463
C 25.113 25.298 30.666
O 24.065 24.651 30.461
C 26.367 25.281 29.673
H 26.044 25.6   28.704
C 26.74  23.811 29.83 
O 27.167 23.25  30.829
O 26.618 23.245 28.571
C 26.986 21.862 28.608
H 28.04  21.854 28.873
H 26.392 21.369 29.397
H 26.864 21.391 27.597
C 25.345 24.959 25.335
H 25.556 24.599 24.322
H 24.668 25.79  25.222
C 24.627 23.952 26.216
H 24.315 24.37  27.141
C 24.214 22.719 25.996
C 24.558 21.983 24.716
H 23.842 21.16  24.595
H 24.461 22.64  23.859
H 25.622 21.738 24.725
C 23.31  21.975 26.969
H 23.53  22.501 27.882
H 23.572 20.947 27.214
C 21.838 22.029 26.646
H 21.427 21.027 26.834
H 21.651 22.23  25.597
C 21.192 23.103 27.522
H 21.525 24.105 27.341
H 21.399 22.808 28.548
C 19.69  23.28  27.358
H 19.644 23.075 26.285
C 19.158 24.743 27.648
H 19.391 24.952 28.698
H 19.65  25.54  26.957
H 18.102 24.68  27.429
C 18.781 22.23  28.111
H 19.201 21.278 27.676
H 17.724 22.29  27.776
C 18.84  22.172 29.645
H 17.861 22.217 30.177
H 19.441 22.977 30.125
C 19.515 20.841 30.098
H 20.588 21.119 30.273
H 19.474 20.127 29.336
C 18.927 20.354 31.514
H 19.015 21.328 31.993
C 20.015 19.414 32.117
H 19.755 19.259 33.18 
H 19.967 18.496 31.542
H 21.092 19.744 32.059
C 17.469 19.807 31.501
H 17.603 18.83  31.1  
H 16.802 20.465 30.852
C 16.748 19.678 32.907
H 15.895 20.308 32.94 
H 17.456 20.016 33.694
C 16.287 18.237 33.247
H 16.982 17.872 34.016
H 16.345 17.55  32.442
C 14.993 18.018 33.909
H 14.776 18.673 34.696
C 14.879 16.653 34.581
H 14.878 15.876 33.831
H 15.688 16.473 35.287
H 14.05  16.672 35.347
C 13.822 18.165 32.906
H 13.888 17.346 32.118
H 12.876 18.005 33.403
H 13.883 19.131 32.323
