137

Mg 28.352 31.009 33.351
C 29.235 27.722 32.613
C 26.787 31.229 30.374
H 26.451 31.413 29.377
C 27.111 34.039 34.361
H 26.597 34.969 34.644
C 30.293 30.836 36.263
H 30.897 30.701 37.215
N 28.053 29.668 31.742
C 28.526 28.378 31.595
C 28.247 27.875 30.156
H 29.193 27.635 29.692
C 27.684 29.106 29.429
H 26.787 28.9   28.92 
C 27.508 30.06  30.557
C 28.68  29.592 28.344
H 28.592 28.931 27.476
H 28.489 30.55  27.901
H 29.678 29.651 28.668
C 27.349 26.615 30.165
H 26.381 26.945 30.402
H 27.635 25.869 30.927
C 27.236 25.972 28.826
H 26.156 25.98  28.553
H 27.677 26.569 28.007
C 27.739 24.528 28.719
O 28.788 24.162 28.115
O 26.878 23.714 29.429
N 27.084 32.405 32.562
C 26.45  32.284 31.295
C 25.468 33.432 31.208
C 25.546 34.119 32.388
C 26.58  33.542 33.141
C 24.586 33.622 29.984
H 25.22  33.879 29.144
H 24.177 32.603 29.954
H 23.819 34.386 30.134
C 24.772 35.369 32.852
H 24.385 35.44  33.857
C 24.398 36.35  32.059
H 24.448 36.254 30.927
H 23.903 37.268 32.475
N 28.77  32.302 34.959
C 28.119 33.478 35.187
C 28.736 34.052 36.394
C 29.643 33.099 36.943
C 29.641 32.012 35.997
C 28.584 35.463 36.929
H 28.376 35.538 38.008
H 29.498 35.973 36.695
H 27.699 35.904 36.451
C 30.376 33.22  38.245
H 31.377 32.921 38.074
H 30.365 34.239 38.597
C 29.814 32.306 39.317
H 30.32  32.576 40.223
H 28.7   32.37  39.536
H 30.031 31.252 39.163
N 29.574 29.681 34.264
C 30.261 29.692 35.492
C 30.909 28.413 35.73 
C 30.567 27.63  34.609
C 29.645 28.382 33.829
C 32.003 28.072 36.721
H 31.693 28.594 37.708
H 32.092 26.978 36.689
H 32.89  28.449 36.4  
C 30.724 26.32  33.942
O 31.403 25.406 34.301
C 29.983 26.372 32.632
H 29.463 25.42  32.604
C 31.079 26.312 31.657
O 31.837 27.24  31.416
O 31.06  25.124 31.031
C 32.075 24.915 30.093
H 31.988 24.101 29.45 
H 32.195 25.755 29.486
H 33.018 24.729 30.647
C 27.167 22.325 29.246
H 28.199 22.146 29.697
H 27.278 21.92  28.273
C 26.198 21.517 29.935
H 25.144 21.713 29.591
C 26.342 20.533 30.85 
C 27.592 20.039 31.531
H 27.592 20.316 32.604
H 27.551 18.905 31.386
H 28.539 20.422 31.099
C 25.109 19.844 31.465
H 24.332 20.596 31.463
H 25.349 19.538 32.543
C 24.587 18.598 30.771
H 24.471 17.753 31.408
H 25.259 18.216 30.051
C 23.201 18.8   30.145
H 23.456 19.371 29.296
H 22.649 19.501 30.766
C 22.408 17.556 29.618
H 23.092 16.836 29.213
C 21.39  18.038 28.659
H 20.812 17.306 28.209
H 20.754 18.845 29.082
H 21.96  18.393 27.803
C 21.755 16.757 30.744
H 22.417 15.942 31.136
H 20.882 16.322 30.349
C 21.185 17.528 32.008
H 20.194 17.117 32.174
H 21.038 18.604 31.775
C 22.105 17.548 33.176
H 22.66  18.461 33.22 
H 22.822 16.731 32.994
C 21.365 17.222 34.532
H 20.265 17.296 34.364
C 21.742 18.188 35.738
H 21.149 17.831 36.582
H 22.832 18.23  35.946
H 21.313 19.091 35.469
C 21.539 15.742 35.042
H 20.91  15.633 35.921
H 22.526 15.596 35.353
C 20.943 14.611 34.129
H 21.066 14.953 33.104
H 19.835 14.649 34.362
C 21.389 13.181 34.411
H 20.669 12.507 34.954
H 22.283 13.339 35.079
C 22.001 12.51  33.125
H 22.818 13.146 32.739
C 21.198 12.437 31.836
H 21.78  12.054 30.98 
H 20.421 11.732 31.78 
H 20.87  13.429 31.558
C 22.741 11.153 33.385
H 22.454 10.804 34.426
H 22.295 10.422 32.724
H 23.841 11.166 33.401
