137

Mg 26.831 30.377 40.263
C 25.103 27.35  40.674
C 24.235 31.434 38.268
H 23.503 31.771 37.55 
C 28.261 33.34  40.047
H 28.856 34.222 39.83 
C 29.03  29.327 42.754
H 29.84  29.087 43.46 
N 24.958 29.428 39.494
C 24.47  28.161 39.782
C 22.942 27.996 39.28 
H 22.714 27.099 38.742
C 22.83  29.279 38.337
H 21.961 29.827 38.555
C 24.064 30.093 38.704
C 22.832 28.842 36.84 
H 22.653 29.781 36.311
H 23.834 28.346 36.718
H 22.014 28.13  36.581
C 21.887 28.029 40.465
H 22.07  28.965 40.992
H 22.148 27.193 41.113
C 20.334 28.09  40.042
H 20.186 27.942 38.96 
H 19.835 27.265 40.614
C 19.572 29.216 40.542
O 18.998 29.261 41.57 
O 19.736 30.308 39.714
N 26.315 32.2   39.348
C 25.279 32.34  38.492
C 25.408 33.661 37.773
C 26.494 34.348 38.41 
C 27.102 33.303 39.305
C 24.44  34.237 36.732
H 24.703 33.833 35.683
H 23.424 33.858 36.951
H 24.354 35.269 36.82 
C 27.027 35.696 38.347
H 27.543 36.054 39.251
C 26.858 36.519 37.3  
H 26.256 36.203 36.406
H 27.162 37.622 37.372
N 28.363 31.229 41.294
C 28.826 32.45  41.019
C 30.067 32.576 41.785
C 30.266 31.471 42.449
C 29.188 30.61  42.203
C 31.    33.74  41.631
H 30.512 34.714 41.692
H 31.646 33.71  42.557
H 31.5   33.598 40.674
C 31.443 31.141 43.316
H 31.674 30.046 43.16 
H 32.323 31.65  43.015
C 31.017 31.34  44.791
H 31.791 31.228 45.583
H 30.61  32.374 44.933
H 30.218 30.629 44.947
N 27.156 28.684 41.411
C 28.098 28.351 42.351
C 27.932 27.012 42.896
C 26.81  26.523 42.207
C 26.352 27.592 41.316
C 28.717 26.314 43.952
H 28.134 25.886 44.738
H 29.215 25.468 43.509
H 29.495 26.896 44.38 
C 25.842 25.483 42.083
O 25.903 24.48  42.784
C 24.675 25.941 41.098
H 23.718 25.74  41.581
C 24.875 25.078 39.919
O 25.658 25.301 39.006
O 24.173 23.885 40.086
C 24.614 22.745 39.253
H 23.802 22.006 39.366
H 24.812 22.951 38.16 
H 25.572 22.337 39.645
C 19.229 31.58  40.284
H 19.782 31.854 41.218
H 18.163 31.506 40.612
C 19.358 32.642 39.208
H 18.955 32.22  38.278
C 20.063 33.741 39.078
C 20.928 34.383 40.111
H 21.954 34.22  39.962
H 20.841 35.479 40.121
H 20.673 34.112 41.122
C 20.28  34.344 37.736
H 19.844 33.626 36.996
H 21.331 34.41  37.546
C 19.672 35.707 37.452
H 20.467 36.495 37.365
H 19.104 35.94  38.349
C 18.821 35.89  36.145
H 17.878 36.397 36.395
H 18.528 34.882 35.749
C 19.489 36.708 34.955
H 19.729 37.629 35.427
C 18.526 37.011 33.775
H 19.002 37.793 33.116
H 18.24  36.092 33.233
H 17.652 37.552 34.121
C 20.848 36.223 34.332
H 21.543 36.234 35.227
H 21.302 36.959 33.721
C 20.727 34.775 33.724
H 19.694 34.429 33.749
H 21.116 34.087 34.535
C 21.505 34.517 32.474
H 22.352 33.817 32.746
H 21.891 35.477 32.118
C 20.776 34.056 31.134
H 20.103 33.227 31.494
C 21.762 33.461 30.156
H 21.154 32.914 29.542
H 22.249 34.279 29.586
H 22.455 32.712 30.569
C 19.853 35.179 30.434
H 20.543 35.87  30.051
H 19.381 35.596 31.293
C 18.829 34.688 29.392
H 19.161 33.701 29.118
H 18.73  35.36  28.518
C 17.361 34.692 29.924
H 16.773 35.329 29.293
H 17.26  35.058 30.925
C 16.657 33.248 29.973
H 16.519 33.011 28.951
C 15.225 33.257 30.433
H 14.73  32.247 30.504
H 15.271 33.819 31.355
H 14.82  33.998 29.738
C 17.361 32.097 30.728
H 17.252 32.224 31.804
H 17.019 31.113 30.374
H 18.458 32.002 30.577
