137

Mg 20.836 26.601 28.89 
C 24.293 25.885 28.911
C 21.436 28.763 31.482
H 21.354 29.295 32.444
C 17.549 26.932 29.132
H 16.5   27.139 29.314
C 20.399 24.115 26.444
H 20.271 23.518 25.521
N 22.727 27.237 30.064
C 23.984 26.841 29.887
C 24.947 27.625 30.842
H 25.617 26.994 31.499
C 23.992 28.457 31.727
H 24.028 29.624 31.735
C 22.641 28.173 31.076
C 24.001 27.973 33.166
H 24.803 28.435 33.782
H 23.081 28.191 33.699
H 24.104 26.877 33.199
C 25.981 28.514 30.12 
H 25.434 29.226 29.485
H 26.656 27.852 29.499
C 26.97  29.171 31.071
H 26.636 28.993 32.063
H 27.896 28.673 30.994
C 27.257 30.615 30.903
O 28.344 31.095 30.694
O 26.147 31.366 31.099
N 19.668 27.773 29.979
C 20.071 28.614 30.952
C 18.897 29.309 31.535
C 17.775 28.639 30.988
C 18.335 27.685 30.019
C 18.886 30.381 32.571
H 19.154 29.91  33.506
H 19.547 31.23  32.259
H 17.806 30.776 32.519
C 16.372 28.907 31.303
H 16.057 28.849 32.33 
C 15.451 29.214 30.359
H 15.737 29.319 29.293
H 14.42  29.489 30.708
N 19.193 25.651 27.962
C 17.904 25.979 28.184
C 17.071 25.164 27.341
C 17.863 24.437 26.504
C 19.202 24.715 26.969
C 15.539 25.328 27.365
H 15.037 24.448 27.808
H 15.309 26.27  27.842
H 15.053 25.49  26.403
C 17.476 23.415 25.424
H 17.866 23.775 24.513
H 18.05  22.55  25.483
C 16.009 23.043 25.287
H 15.441 23.805 24.849
H 15.838 22.229 24.559
H 15.601 22.764 26.284
N 21.995 25.255 27.855
C 21.692 24.311 26.981
C 22.943 23.574 26.632
C 23.973 24.21  27.253
C 23.299 25.168 28.109
C 23.104 22.447 25.671
H 22.893 22.898 24.748
H 24.163 22.218 25.749
H 22.398 21.655 25.936
C 25.394 24.261 27.415
O 26.298 23.629 26.86 
C 25.708 25.271 28.514
H 26.496 25.906 28.095
C 26.262 24.43  29.604
O 25.665 23.845 30.541
O 27.625 24.571 29.587
C 28.256 23.928 30.759
H 27.822 24.253 31.746
H 28.212 22.848 30.587
H 29.269 24.281 30.761
C 26.399 32.753 30.98 
H 26.716 32.837 29.928
H 27.259 33.016 31.585
C 25.185 33.576 31.378
H 24.931 33.56  32.469
C 24.464 34.475 30.682
C 24.755 35.015 29.263
H 24.044 34.588 28.541
H 24.683 36.063 29.263
H 25.824 34.961 28.938
C 23.319 35.305 31.324
H 23.292 34.925 32.32 
H 22.305 35.155 30.788
C 23.411 36.851 31.538
H 24.416 37.118 31.252
H 23.236 36.934 32.646
C 22.334 37.731 30.66 
H 21.833 37.061 29.921
H 23.106 38.298 30.132
C 21.413 38.617 31.583
H 22.057 38.856 32.371
C 20.249 37.75  32.019
H 19.747 38.254 32.781
H 19.635 37.339 31.284
H 20.606 36.89  32.558
C 20.748 39.835 30.934
H 20.129 40.442 31.593
H 19.991 39.513 30.197
C 21.759 40.798 30.273
H 21.484 40.941 29.198
H 22.694 40.364 30.285
C 21.906 42.158 30.922
H 22.981 42.237 31.231
H 21.3   42.15  31.826
C 21.554 43.468 30.2  
H 22.044 43.546 29.25 
C 22.025 44.65  31.024
H 21.512 44.745 31.979
H 23.088 44.567 31.085
H 21.913 45.657 30.56 
C 20.074 43.518 29.82 
H 19.654 43.391 30.839
H 19.695 42.628 29.279
C 19.557 44.859 29.247
H 20.298 45.237 28.577
H 19.246 45.559 30.028
C 18.39  44.55  28.211
H 17.884 43.637 28.611
H 18.929 44.227 27.276
C 17.527 45.779 27.981
H 17.819 46.61  28.678
C 16.104 45.51  28.384
H 15.563 46.447 28.076
H 15.636 44.736 27.769
H 15.921 45.253 29.408
C 17.663 46.411 26.635
H 17.553 45.615 25.874
H 17.05  47.265 26.542
H 18.653 46.753 26.506
