137

Mg 24.827 27.96  42.106
C 23.426 24.917 41.35 
C 27.012 27.583 39.416
H 27.601 27.481 38.513
C 26.237 30.952 42.886
H 26.765 31.893 43.053
C 22.932 28.092 44.945
H 22.335 28.044 45.928
N 25.232 26.438 40.611
C 24.444 25.288 40.453
C 24.821 24.551 39.179
H 25.109 23.496 39.505
C 26.099 25.294 38.706
H 26.006 25.689 37.695
C 26.111 26.538 39.657
C 27.39  24.488 38.787
H 27.602 24.432 39.866
H 27.092 23.552 38.396
H 28.264 24.953 38.285
C 23.6   24.547 38.118
H 23.594 25.589 37.703
H 22.622 24.367 38.542
C 23.953 23.499 36.993
H 24.98  23.2   37.106
H 23.287 22.643 37.023
C 23.732 24.076 35.584
O 24.506 24.827 35.003
O 22.536 23.754 34.98 
N 26.346 29.059 41.329
C 27.165 28.72  40.246
C 28.064 29.847 40.021
C 27.735 30.909 40.841
C 26.695 30.358 41.709
C 29.155 29.875 39.025
H 29.057 30.905 38.638
H 30.181 30.021 39.454
H 29.165 29.205 38.167
C 28.412 32.252 40.802
H 29.514 32.212 40.66 
C 27.741 33.424 40.786
H 26.668 33.436 40.851
H 28.27  34.368 40.738
N 24.679 29.253 43.74 
C 25.355 30.467 43.856
C 25.074 31.041 45.154
C 24.143 30.175 45.741
C 23.917 29.1   44.791
C 25.654 32.28  45.73 
H 26.511 31.871 46.279
H 26.118 32.932 44.993
H 24.939 32.866 46.308
C 23.486 30.28  47.138
H 23.594 29.366 47.653
H 23.972 31.139 47.687
C 21.99  30.618 47.237
H 21.932 31.447 46.433
H 21.283 29.775 47.162
H 21.801 31.118 48.169
N 23.432 26.795 43.012
C 22.664 26.997 44.17 
C 21.741 25.895 44.358
C 21.976 25.019 43.264
C 23.051 25.61  42.509
C 20.649 25.841 45.358
H 20.159 26.761 45.521
H 19.88  25.189 44.935
H 20.899 25.529 46.384
C 21.632 23.768 42.68 
O 20.856 22.875 43.011
C 22.417 23.766 41.274
H 21.596 23.964 40.607
C 23.01  22.439 41.109
O 23.832 21.932 41.874
O 22.794 22.039 39.83 
C 23.706 20.966 39.38 
H 23.181 20.513 38.542
H 24.645 21.559 39.297
H 23.801 20.127 40.074
C 22.315 24.433 33.64 
H 23.    24.095 32.877
H 22.513 25.548 33.703
C 20.868 24.222 33.14 
H 20.602 23.191 33.325
C 20.024 25.151 32.655
C 20.452 26.608 32.18 
H 20.09  27.365 32.871
H 21.516 26.591 32.08 
H 20.004 27.01  31.227
C 18.595 24.893 32.387
H 18.545 23.861 32.533
H 18.322 25.157 31.345
C 17.67  25.571 33.363
H 17.02  26.312 32.937
H 18.264 26.007 34.193
C 16.79  24.53  34.153
H 17.469 23.753 34.444
H 16.    24.203 33.452
C 16.032 25.081 35.344
H 16.745 25.407 36.077
C 15.259 23.957 36.13 
H 14.891 24.353 37.098
H 14.381 23.661 35.726
H 15.98  23.193 36.48 
C 15.266 26.324 35.085
H 15.974 27.077 34.783
H 14.905 26.746 36.069
C 13.937 26.272 34.279
H 13.203 26.956 34.791
H 13.516 25.34  34.203
C 13.959 26.786 32.827
H 14.972 27.071 32.639
H 13.505 27.799 32.758
C 13.457 25.776 31.689
H 13.941 24.79  31.72 
C 13.807 26.194 30.259
H 13.407 27.133 29.93 
H 14.896 26.291 30.291
H 13.581 25.319 29.666
C 12.002 25.598 31.838
H 11.511 26.49  31.537
H 11.855 25.49  32.887
C 11.322 24.526 30.906
H 12.041 23.835 30.537
H 10.98  25.099 30.032
C 10.048 23.839 31.56 
H  9.108 24.355 31.256
H 10.22  24.058 32.675
C  9.852 22.284 31.424
H 10.813 21.806 31.668
C  9.584 21.918 29.984
H 10.333 22.497 29.437
H  9.772 20.877 29.824
H  8.511 22.06  29.779
C  8.595 21.877 32.273
H  8.356 20.84  32.281
H  8.831 22.087 33.346
H  7.657 22.398 31.99 
