137

Mg 29.096 30.419 33.663
C 28.526 29.613 37.089
C 25.824 29.612 33.037
H 24.754 29.473 32.845
C 29.617 31.102 30.539
H 29.825 31.49  29.53 
C 32.331 31.162 34.614
H 33.331 31.44  34.926
N 27.419 29.649 34.849
C 27.397 29.467 36.251
C 25.988 28.966 36.761
H 26.248 28.048 37.227
C 25.251 28.666 35.391
H 24.369 29.17  35.299
C 26.195 29.313 34.334
C 24.921 27.183 35.08 
H 24.538 26.891 34.041
H 25.868 26.648 35.19 
H 24.138 26.831 35.753
C 25.295 29.988 37.779
H 24.843 30.653 37.12 
H 26.082 30.49  38.355
C 24.311 29.445 38.833
H 24.525 28.383 38.957
H 24.458 29.864 39.878
C 22.82  29.678 38.566
O 22.114 30.48  39.189
O 22.472 29.052 37.398
N 27.933 30.345 32.004
C 26.584 30.013 31.926
C 26.093 30.231 30.56 
C 27.211 30.657 29.763
C 28.309 30.685 30.749
C 24.712 29.981 30.04 
H 24.631 29.35  29.152
H 24.043 29.477 30.794
H 24.281 30.914 29.623
C 27.281 30.767 28.34 
H 26.448 31.144 27.836
C 28.391 30.395 27.641
H 29.208 29.723 28.021
H 28.446 30.59  26.566
N 30.719 30.891 32.709
C 30.724 31.197 31.412
C 32.097 31.606 31.091
C 32.824 31.739 32.233
C 31.916 31.319 33.289
C 32.505 31.909 29.7  
H 33.313 31.26  29.481
H 31.71  31.933 28.905
H 32.911 32.902 29.733
C 34.199 32.286 32.315
H 34.873 31.555 32.69 
H 34.511 32.505 31.294
C 34.168 33.61  33.102
H 35.083 34.146 32.829
H 33.322 34.13  32.642
H 33.962 33.462 34.093
N 30.279 30.362 35.43 
C 31.567 30.702 35.673
C 31.948 30.491 37.06 
C 30.801 29.966 37.635
C 29.769 30.041 36.657
C 33.313 30.852 37.721
H 33.694 29.885 38.154
H 34.177 31.215 37.07 
H 33.16  31.602 38.505
C 30.183 29.725 38.894
O 30.521 29.936 40.066
C 28.692 29.46  38.584
H 28.086 30.056 39.229
C 28.615 28.059 39.094
O 29.04  27.077 38.555
O 27.785 28.027 40.192
C 27.68  26.682 40.751
H 28.67  26.239 40.863
H 27.218 26.809 41.767
H 26.93  26.17  40.139
C 21.137 29.385 36.898
H 21.077 30.48  36.767
H 20.368 29.056 37.668
C 21.066 28.654 35.62 
H 21.765 27.832 35.399
C 20.23  28.95  34.558
C 19.279 30.146 34.406
H 19.323 30.778 33.49 
H 18.222 29.808 34.55 
H 19.47  30.893 35.169
C 20.288 28.045 33.353
H 21.026 27.288 33.499
H 20.573 28.833 32.599
C 18.899 27.403 33.12 
H 18.334 27.438 34.058
H 19.043 26.357 32.94 
C 18.182 28.043 31.938
H 18.214 27.383 31.087
H 18.731 28.933 31.534
C 16.703 28.407 32.291
H 16.742 28.77  33.26 
C 15.701 27.244 32.361
H 16.022 26.675 33.196
H 14.658 27.555 32.598
H 15.786 26.488 31.659
C 16.347 29.522 31.277
H 17.127 30.287 31.29 
H 15.456 30.097 31.568
C 16.095 29.174 29.759
H 16.135 28.115 29.566
H 16.913 29.738 29.17 
C 14.793 29.811 29.178
H 14.14  29.955 30.018
H 14.304 29.002 28.587
C 15.029 31.115 28.388
H 15.76  30.86  27.649
C 15.474 32.275 29.31 
H 14.73  32.675 29.947
H 16.269 32.01  30.001
H 15.83  33.123 28.65 
C 13.661 31.374 27.659
H 12.767 31.226 28.366
H 13.443 30.539 27.008
C 13.459 32.704 26.89 
H 13.064 32.627 25.92 
H 14.418 33.289 26.729
C 12.353 33.565 27.549
H 12.345 33.198 28.546
H 11.343 33.349 27.079
C 12.503 35.146 27.538
H 13.549 35.429 27.793
C 11.575 35.73  28.713
H 11.781 35.136 29.57 
H 11.863 36.78  28.961
H 10.526 35.696 28.582
C 12.074 35.794 26.186
H 11.91  36.809 26.293
H 12.844 35.614 25.434
H 11.179 35.307 25.781
