137

Mg 36.743 35.333 35.54 
C 33.66  34.248 36.251
C 36.86  33.462 32.729
H 36.808 32.836 31.807
C 39.953 36.24  35.056
H 41.033 36.457 34.847
C 36.517 37.583 38.245
H 36.423 38.195 39.112
N 35.37  34.202 34.537
C 34.133 33.83  35.053
C 33.343 32.97  34.017
H 32.736 32.178 34.599
C 34.45  32.582 33.054
H 34.157 32.765 32.037
C 35.639 33.453 33.444
C 34.69  31.062 33.157
H 33.879 30.51  32.705
H 35.706 30.808 32.795
H 34.772 30.733 34.173
C 32.234 33.828 33.317
H 32.765 34.677 32.825
H 31.675 34.387 34.096
C 31.254 33.153 32.251
H 31.54  33.255 31.199
H 31.218 32.025 32.435
C 29.858 33.645 32.264
O 29.427 34.397 31.387
O 29.131 33.136 33.293
N 38.138 34.843 34.146
C 38.038 34.115 33.044
C 39.287 34.065 32.323
C 40.248 34.794 33.039
C 39.452 35.331 34.143
C 39.467 33.21  31.037
H 38.854 32.266 30.976
H 39.141 33.844 30.231
H 40.483 32.874 31.028
C 41.701 34.904 32.806
H 42.365 35.047 33.683
C 42.244 34.91  31.545
H 41.682 34.792 30.628
H 43.354 34.979 31.419
N 38.015 36.726 36.414
C 39.321 36.952 36.088
C 39.886 37.957 36.961
C 38.836 38.406 37.775
C 37.756 37.535 37.517
C 41.234 38.461 36.799
H 41.196 39.483 36.418
H 41.818 38.402 37.738
H 41.809 37.874 36.071
C 38.927 39.584 38.741
H 38.346 39.295 39.661
H 39.955 39.807 39.057
C 38.266 40.885 38.3  
H 38.448 41.823 38.951
H 38.673 41.072 37.325
H 37.208 40.643 38.275
N 35.386 35.862 36.918
C 35.384 36.728 37.992
C 34.195 36.608 38.773
C 33.547 35.616 38.173
C 34.283 35.201 37.057
C 33.798 37.394 40.023
H 34.319 38.436 39.932
H 32.729 37.53  40.   
H 34.029 36.838 40.881
C 32.364 34.827 38.194
O 31.514 34.841 39.049
C 32.417 33.751 36.999
H 31.542 33.882 36.386
C 32.64  32.42  37.551
O 33.5   32.053 38.336
O 31.691 31.58  36.956
C 31.712 30.214 37.457
H 31.464 30.18  38.558
H 30.876 29.659 36.999
H 32.61  29.646 37.242
C 27.711 33.527 33.277
H 27.25  33.299 32.307
H 27.718 34.627 33.353
C 27.004 32.981 34.509
H 27.527 32.944 35.404
C 25.697 32.784 34.696
C 24.596 32.877 33.675
H 23.806 33.595 33.989
H 25.009 33.189 32.693
H 24.282 31.831 33.556
C 25.24  32.371 36.075
H 25.99  32.024 36.724
H 24.536 31.547 35.972
C 24.429 33.576 36.755
H 24.75  34.544 36.32 
H 24.65  33.48  37.871
C 22.92  33.36  36.642
H 22.482 32.867 37.418
H 22.69  32.765 35.804
C 22.163 34.681 36.383
H 22.721 35.285 35.754
C 22.066 35.339 37.733
H 21.788 36.376 37.486
H 21.426 34.85  38.483
H 23.078 35.381 38.128
C 20.775 34.357 35.724
H 20.996 33.71  34.905
H 20.462 35.293 35.301
C 19.628 33.731 36.537
H 18.675 34.231 36.278
H 19.613 33.834 37.641
C 19.37  32.209 36.202
H 20.341 31.863 35.842
H 18.596 32.193 35.507
C 18.856 31.366 37.381
H 18.044 31.891 37.913
C 20.079 31.08  38.315
H 20.5   32.05  38.461
H 19.834 30.466 39.18 
H 20.704 30.471 37.679
C 18.299 30.007 36.952
H 18.013 29.395 37.855
H 19.129 29.489 36.494
C 16.996 30.057 36.109
H 16.652 31.048 36.283
H 16.297 29.351 36.562
C 17.291 29.828 34.557
H 16.969 28.767 34.438
H 18.304 29.935 34.343
C 16.65  30.742 33.564
H 17.047 31.675 33.874
C 15.131 30.634 33.561
H 14.664 31.501 33.034
H 14.93  29.693 33.061
H 14.602 30.621 34.509
C 17.116 30.443 32.111
H 16.432 30.848 31.419
H 18.068 30.888 31.952
H 17.162 29.399 31.892
