137

Mg 33.46  31.696 35.651
C 30.484 31.536 33.867
C 34.884 29.441 33.355
H 35.265 28.716 32.714
C 36.268 32.076 37.357
H 37.175 32.141 37.934
C 32.014 34.236 37.539
H 31.603 34.999 38.141
N 32.856 30.731 33.835
C 31.564 30.817 33.272
C 31.501 30.043 31.981
H 30.715 29.35  32.069
C 32.85  29.392 31.871
H 33.382 29.905 30.977
C 33.614 29.857 33.14 
C 32.946 27.874 31.68 
H 32.608 27.677 30.641
H 33.967 27.639 31.665
H 32.33  27.404 32.448
C 31.242 31.079 30.851
H 32.101 31.715 30.773
H 30.398 31.705 31.206
C 30.955 30.489 29.475
H 31.74  30.851 28.857
H 30.892 29.402 29.507
C 29.669 30.908 28.718
O 29.269 30.406 27.656
O 29.007 31.904 29.446
N 35.269 30.923 35.421
C 35.679 30.037 34.403
C 37.112 29.866 34.567
C 37.584 30.592 35.7  
C 36.345 31.175 36.263
C 37.823 29.016 33.672
H 37.33  28.523 32.882
H 38.612 29.614 33.185
H 38.332 28.291 34.274
C 38.99  30.817 36.266
H 39.022 30.851 37.281
C 40.065 31.173 35.476
H 40.004 31.081 34.381
H 41.05  31.492 35.826
N 34.058 32.897 37.181
C 35.315 32.886 37.754
C 35.355 33.825 38.895
C 34.144 34.546 38.772
C 33.389 34.006 37.704
C 36.559 34.084 39.706
H 37.475 34.396 39.225
H 36.356 34.996 40.304
H 36.762 33.187 40.274
C 33.73  35.722 39.63 
H 32.727 35.514 40.107
H 34.442 35.885 40.391
C 33.375 37.044 38.91 
H 32.438 36.969 38.33 
H 33.327 37.917 39.602
H 34.017 37.337 38.086
N 31.78  32.744 35.718
C 31.271 33.685 36.555
C 29.914 34.011 36.293
C 29.511 33.158 35.256
C 30.692 32.445 34.93 
C 29.077 34.999 37.135
H 28.006 34.931 36.848
H 29.251 34.878 38.2  
H 29.363 36.012 36.805
C 28.406 32.682 34.428
O 27.228 32.999 34.48 
C 28.946 31.577 33.508
H 28.575 31.775 32.551
C 28.335 30.257 33.858
O 28.676 29.359 34.692
O 27.3   30.138 32.94 
C 26.673 28.753 32.938
H 25.891 28.935 32.106
H 27.478 28.094 32.704
H 26.22  28.445 33.872
C 27.633 32.145 28.993
H 27.024 31.184 28.813
H 27.617 32.665 27.973
C 26.946 33.294 29.721
H 27.236 34.258 29.379
C 25.924 33.219 30.589
C 25.352 31.899 31.22 
H 24.288 31.747 30.959
H 26.043 31.129 31.006
H 25.429 32.1   32.278
C 25.317 34.527 31.077
H 25.906 35.39  30.763
H 25.235 34.5   32.163
C 23.988 34.87  30.34 
H 23.84  34.247 29.496
H 23.904 35.896 30.034
C 22.76  34.771 31.281
H 22.405 35.79  31.368
H 23.07  34.404 32.264
C 21.515 33.944 30.862
H 21.907 32.916 30.726
C 21.118 34.426 29.468
H 20.762 35.452 29.474
H 21.903 34.413 28.685
H 20.362 33.703 29.184
C 20.369 33.78  31.909
H 19.522 33.104 31.594
H 19.971 34.688 32.08 
C 20.89  33.126 33.19 
H 21.198 33.946 33.798
H 21.621 32.366 32.854
C 19.79  32.323 33.909
H 19.8   31.268 33.579
H 18.91  32.861 33.702
C 20.061 32.203 35.453
H 20.13  33.152 35.868
C 21.42  31.417 35.674
H 21.168 30.481 35.242
H 22.213 31.993 35.232
H 21.62  31.208 36.725
C 18.94  31.439 36.189
H 19.252 31.397 37.223
H 18.944 30.346 35.961
C 17.473 31.839 36.   
H 17.5   32.864 35.562
H 16.87  31.736 36.96 
C 16.736 31.178 34.772
H 17.506 30.654 34.131
H 16.264 31.994 34.218
C 15.58  30.193 35.182
H 14.753 30.713 35.644
C 16.112 28.995 35.988
H 15.251 28.365 36.287
H 16.855 28.374 35.402
H 16.643 29.194 36.934
C 14.863 29.665 33.942
H 14.331 28.725 34.158
H 14.15  30.439 33.712
H 15.551 29.566 33.167
