137

Mg 20.383 25.694 30.16 
C 22.968 23.79  28.834
C 22.692 28.193 30.926
H 23.358 29.034 31.201
C 17.92  27.707 31.387
H 17.148 28.295 31.876
C 18.1   23.356 29.34 
H 17.357 22.586 29.011
N 22.555 25.9   29.977
C 23.452 25.023 29.369
C 24.909 25.402 29.768
H 25.201 24.645 30.437
C 24.772 26.813 30.408
H 25.142 27.562 29.799
C 23.272 26.994 30.536
C 25.531 26.884 31.799
H 25.182 26.211 32.542
H 26.649 26.727 31.718
H 25.34  27.843 32.181
C 25.798 25.465 28.529
H 25.441 26.319 27.986
H 25.648 24.553 27.921
C 27.323 25.489 28.693
H 27.583 25.366 29.732
H 27.74  24.652 28.052
C 27.922 26.788 28.194
O 28.647 26.848 27.264
O 27.505 27.837 29.031
N 20.295 27.679 30.833
C 21.356 28.492 31.135
C 20.875 29.757 31.586
C 19.563 29.654 31.736
C 19.229 28.255 31.347
C 21.67  30.936 31.872
H 22.423 30.749 32.639
H 22.249 31.176 31.003
H 21.118 31.858 32.139
C 18.665 30.601 32.35 
H 17.98  31.107 31.657
C 18.79  30.886 33.663
H 19.476 30.334 34.32 
H 18.009 31.514 34.155
N 18.318 25.454 30.473
C 17.491 26.401 30.928
C 16.113 25.887 30.882
C 16.142 24.557 30.344
C 17.55  24.434 30.005
C 14.845 26.59  31.536
H 14.158 25.868 31.843
H 15.119 27.17  32.424
H 14.261 27.087 30.756
C 14.98  23.571 30.   
H 14.063 24.115 30.23 
H 14.942 23.365 28.916
C 15.075 22.24  30.806
H 15.26  22.6   31.799
H 14.243 21.574 30.8  
H 15.907 21.614 30.481
N 20.435 24.013 29.203
C 19.386 23.097 28.959
C 19.945 21.943 28.227
C 21.355 22.148 28.305
C 21.61  23.423 28.786
C 19.244 20.745 27.658
H 19.184 20.86  26.561
H 19.912 19.894 27.884
H 18.333 20.405 28.099
C 22.629 21.562 27.895
O 22.842 20.476 27.375
C 23.753 22.612 28.168
H 24.201 22.906 27.23 
C 24.766 22.042 29.091
O 24.646 21.861 30.302
O 26.002 22.15  28.564
C 27.128 21.713 29.331
H 28.061 21.71  28.698
H 27.532 22.353 30.155
H 27.118 20.708 29.749
C 27.583 29.097 28.418
H 26.966 29.121 27.528
H 28.622 29.263 28.192
C 27.146 30.171 29.418
H 27.759 30.221 30.255
C 26.073 31.011 29.493
C 24.997 31.139 28.418
H 23.973 31.292 28.77 
H 25.188 32.011 27.77 
H 25.012 30.2   27.887
C 25.921 31.948 30.662
H 26.734 31.916 31.403
H 24.981 31.698 31.248
C 25.799 33.517 30.536
H 26.115 33.819 29.497
H 26.52  33.913 31.156
C 24.332 34.056 30.83 
H 23.576 33.315 30.93 
H 24.03  34.69  29.971
C 24.175 34.845 32.189
H 25.12  35.348 32.436
C 23.877 33.803 33.301
H 24.626 33.053 33.281
H 23.899 34.248 34.211
H 22.973 33.237 33.13 
C 22.932 35.81  32.162
H 22.664 36.103 33.234
H 22.117 35.255 31.716
C 23.195 37.051 31.251
H 22.276 37.273 30.627
H 24.058 36.805 30.528
C 23.569 38.237 32.183
H 24.702 38.331 32.178
H 23.111 38.095 33.132
C 22.908 39.579 31.738
H 21.878 39.456 31.483
C 23.599 40.19  30.464
H 23.277 39.592 29.649
H 23.375 41.265 30.358
H 24.653 40.055 30.548
C 22.893 40.716 32.909
H 23.89  41.14  32.967
H 22.718 40.222 33.856
C 21.748 41.82  32.94 
H 21.12  41.563 33.776
H 21.256 41.78  32.034
C 22.314 43.226 33.157
H 23.416 43.051 33.377
H 21.931 43.729 34.069
C 22.251 44.309 32.041
H 22.638 43.732 31.169
C 22.978 45.575 32.284
H 22.76  46.126 31.338
H 22.613 46.099 33.142
H 24.047 45.465 32.318
C 20.749 44.578 31.652
H 20.199 45.295 32.322
H 20.656 44.965 30.598
H 20.129 43.699 31.714
