137

Mg 22.177 26.951 31.758
C 25.029 24.824 31.669
C 23.171 28.081 34.854
H 23.434 28.549 35.853
C 19.589 29.024 31.668
H 18.92  29.916 31.582
C 20.97  25.266 28.985
H 20.681 24.732 28.094
N 23.931 26.619 33.03 
C 24.998 25.704 32.761
C 26.032 25.744 33.896
H 26.337 24.707 34.18 
C 25.222 26.441 35.033
H 25.807 27.267 35.427
C 24.039 27.099 34.304
C 24.743 25.676 36.316
H 25.642 25.203 36.782
H 24.262 26.327 37.033
H 24.015 24.894 36.009
C 27.287 26.508 33.348
H 26.923 27.505 32.95 
H 27.6   25.882 32.553
C 28.549 26.656 34.226
H 28.462 26.154 35.171
H 29.455 26.167 33.788
C 28.957 28.117 34.656
O 30.028 28.545 34.915
O 27.835 28.885 34.763
N 21.519 28.324 32.952
C 22.02  28.662 34.236
C 21.295 29.844 34.771
C 20.321 30.064 33.794
C 20.522 29.121 32.705
C 21.663 30.674 36.046
H 22.553 31.28  35.803
H 20.831 31.307 36.397
H 21.886 30.002 36.864
C 19.204 31.093 33.845
H 18.212 30.777 33.521
C 19.349 32.325 34.415
H 20.221 32.732 34.896
H 18.527 32.985 34.476
N 20.535 27.07  30.586
C 19.565 28.068 30.667
C 18.64  28.01  29.531
C 19.03  26.849 28.787
C 20.255 26.396 29.408
C 17.495 29.048 29.315
H 16.523 28.59  29.355
H 17.531 29.918 30.018
H 17.694 29.517 28.355
C 18.316 26.403 27.676
H 17.753 27.195 27.211
H 18.975 26.077 26.881
C 17.33  25.383 28.011
H 16.554 25.693 28.754
H 16.849 25.016 27.113
H 17.924 24.49  28.407
N 22.827 25.355 30.551
C 22.218 24.75  29.458
C 23.084 23.719 28.918
C 24.163 23.684 29.82 
C 23.954 24.693 30.757
C 22.744 22.775 27.747
H 22.226 23.301 26.982
H 23.658 22.258 27.397
H 22.205 21.987 28.16 
C 25.368 23.037 30.035
O 25.976 22.19  29.419
C 26.071 23.813 31.222
H 26.987 24.172 30.77 
C 26.482 22.797 32.211
O 25.699 22.175 32.939
O 27.877 22.68  32.27 
C 28.269 21.513 33.119
H 29.291 21.412 33.153
H 28.024 21.889 34.139
H 27.766 20.594 32.849
C 28.073 30.326 34.705
H 28.777 30.727 33.948
H 28.215 30.927 35.573
C 26.749 30.799 34.101
H 25.877 30.354 34.492
C 26.562 31.767 33.2  
C 27.714 32.663 32.581
H 27.873 32.461 31.524
H 27.375 33.696 32.445
H 28.652 32.62  33.094
C 25.183 31.94  32.607
H 24.598 31.055 32.929
H 25.353 31.86  31.544
C 24.468 33.175 33.137
H 25.041 33.767 33.848
H 23.634 32.657 33.684
C 23.851 34.097 31.994
H 24.479 34.199 31.084
H 23.897 35.118 32.4  
C 22.33  33.881 31.62 
H 21.825 34.134 32.547
C 21.984 32.396 31.321
H 22.547 31.786 32.005
H 20.927 32.273 31.548
H 22.085 32.144 30.265
C 21.787 34.863 30.565
H 20.72  34.596 30.388
H 22.362 34.709 29.661
C 21.848 36.335 31.021
H 22.715 36.839 30.549
H 22.096 36.319 32.065
C 20.516 37.123 31.085
H 20.215 37.211 32.118
H 19.837 36.651 30.439
C 20.698 38.622 30.726
H 21.357 38.721 29.85 
C 21.44  39.329 31.925
H 20.885 39.091 32.809
H 22.388 38.88  31.99 
H 21.48  40.403 31.757
C 19.407 39.326 30.178
H 18.688 39.392 31.015
H 18.93  38.628 29.507
C 19.492 40.634 29.419
H 19.612 40.415 28.408
H 20.481 41.049 29.58 
C 18.311 41.676 29.719
H 17.585 41.222 30.43 
H 17.845 41.771 28.771
C 18.798 42.959 30.399
H 19.24  42.872 31.408
C 17.661 43.933 30.585
H 17.773 44.918 30.98 
H 17.117 44.086 29.656
H 16.964 43.437 31.314
C 19.885 43.617 29.52 
H 19.719 43.566 28.406
H 19.842 44.704 29.662
H 20.823 43.288 29.791
