137

Mg 30.149 29.265 35.956
C 27.362 29.046 37.98 
C 28.077 29.13  33.272
H 27.435 29.088 32.373
C 32.879 29.732 34.122
H 33.778 29.884 33.493
C 32.018 29.581 38.885
H 32.547 29.645 39.852
N 27.896 29.122 35.707
C 27.017 29.166 36.638
C 25.615 29.127 35.977
H 25.255 28.189 36.323
C 25.918 28.95  34.422
H 25.585 29.762 33.769
C 27.379 29.002 34.441
C 25.333 27.566 34.028
H 24.301 27.446 34.25 
H 25.487 27.454 32.966
H 25.951 26.814 34.481
C 24.706 30.266 36.41 
H 24.915 31.169 35.836
H 24.841 30.545 37.48 
C 23.225 29.813 36.493
H 23.174 28.73  36.257
H 22.861 30.004 37.536
C 22.2   30.445 35.575
O 21.336 31.294 35.829
O 22.236 29.733 34.402
N 30.437 29.437 33.963
C 29.511 29.255 33.02 
C 30.127 29.353 31.728
C 31.444 29.718 31.991
C 31.659 29.564 33.398
C 29.334 29.254 30.39 
H 28.728 30.156 30.259
H 30.025 29.142 29.565
H 28.663 28.456 30.412
C 32.464 30.209 30.986
H 33.438 29.681 30.866
C 32.115 31.173 30.107
H 31.184 31.782 30.304
H 32.814 31.559 29.358
N 32.054 29.403 36.42 
C 33.073 29.594 35.502
C 34.39  29.689 36.15 
C 34.121 29.554 37.502
C 32.704 29.448 37.677
C 35.677 29.838 35.401
H 36.414 29.431 36.104
H 35.753 29.247 34.483
H 35.891 30.915 35.292
C 35.118 29.762 38.643
H 34.613 29.427 39.594
H 35.908 29.01  38.455
C 35.667 31.211 38.701
H 34.882 31.781 39.173
H 36.5   31.224 39.431
H 36.052 31.54  37.743
N 29.847 29.393 38.023
C 30.624 29.485 39.064
C 29.931 29.406 40.351
C 28.668 29.152 39.974
C 28.636 29.184 38.543
C 30.54  29.238 41.715
H 29.772 28.927 42.479
H 31.427 28.539 41.69 
H 30.862 30.291 41.929
C 27.359 28.787 40.449
O 26.949 28.557 41.581
C 26.451 28.854 39.18 
H 25.724 29.71  39.368
C 25.666 27.597 39.118
O 26.061 26.429 39.293
O 24.299 27.9   38.817
C 23.399 26.71  38.854
H 23.327 26.404 39.949
H 22.402 27.001 38.488
H 23.722 25.997 38.074
C 21.118 30.032 33.538
H 20.773 31.028 33.531
H 20.338 29.414 33.928
C 21.55  29.776 32.152
H 22.535 30.149 31.827
C 20.844 28.994 31.323
C 19.472 28.352 31.681
H 18.878 28.267 30.782
H 19.669 27.381 32.058
H 18.868 28.934 32.395
C 21.429 28.645 29.938
H 22.377 29.151 29.795
H 20.754 29.166 29.289
C 21.531 27.132 29.639
H 21.286 26.463 30.466
H 22.648 26.98  29.467
C 20.723 26.662 28.467
H 21.51  26.624 27.67 
H 20.014 27.378 28.117
C 20.133 25.195 28.686
H 20.927 24.545 29.171
C 19.908 24.412 27.316
H 19.938 23.308 27.449
H 18.974 24.692 26.828
H 20.812 24.634 26.727
C 18.956 24.956 29.592
H 19.198 25.392 30.61 
H 18.6   23.932 29.746
C 17.668 25.815 29.272
H 17.735 26.616 28.477
H 17.34  26.253 30.202
C 16.494 24.93  28.881
H 16.767 23.905 28.704
H 16.129 25.439 27.953
C 15.334 24.722 29.91 
H 14.988 25.749 30.205
C 15.745 23.869 31.16 
H 16.006 22.86  31.03 
H 16.433 24.373 31.822
H 14.88  23.754 31.891
C 14.168 23.978 29.186
H 14.478 22.957 28.919
H 14.179 24.618 28.327
C 12.759 23.961 29.866
H 12.084 24.142 29.007
H 12.572 24.863 30.541
C 12.445 22.541 30.4  
H 13.345 21.904 30.383
H 11.716 22.219 29.674
C 11.773 22.607 31.828
H 12.291 23.333 32.518
C 11.706 21.21  32.523
H 12.724 20.951 32.835
H 11.008 21.377 33.388
H 11.261 20.437 31.852
C 10.383 23.329 31.726
H 10.404 24.332 31.326
H  9.758 22.72  31.07 
H  9.813 23.417 32.654
