137

Mg 21.885 32.557 31.744
C 20.767 29.3   31.737
C 18.775 33.549 33.12 
H 17.809 33.859 33.571
C 22.94  35.741 31.585
H 23.215 36.84  31.49 
C 24.958 31.495 30.455
H 25.935 31.191 30.071
N 20.062 31.553 32.297
C 19.834 30.241 32.272
C 18.395 29.833 32.687
H 17.991 29.392 31.806
C 17.72  31.218 33.039
H 17.449 31.384 34.095
C 18.866 32.192 32.793
C 16.331 31.55  32.348
H 16.122 32.529 32.59 
H 16.409 31.585 31.237
H 15.536 30.846 32.588
C 18.269 28.753 33.852
H 18.078 29.339 34.765
H 19.235 28.259 33.971
C 17.119 27.686 33.808
H 16.473 28.049 33.006
H 17.462 26.763 33.414
C 16.103 27.349 34.889
O 15.884 26.213 35.269
O 15.448 28.491 35.355
N 21.044 34.415 32.308
C 19.774 34.559 32.819
C 19.627 35.938 33.216
C 20.768 36.608 32.669
C 21.643 35.61  32.134
C 18.468 36.562 33.905
H 17.67  36.843 33.221
H 18.098 35.987 34.727
H 18.781 37.428 34.528
C 21.107 38.072 32.623
H 22.07  38.412 32.242
C 20.31  39.117 32.901
H 19.279 38.973 33.327
H 20.524 40.084 32.676
N 23.644 33.4   31.21 
C 23.813 34.786 31.185
C 25.082 35.044 30.536
C 25.708 33.858 30.245
C 24.715 32.86  30.629
C 25.68  36.513 30.228
H 26.572 36.574 29.516
H 24.888 37.175 29.924
H 26.027 36.912 31.174
C 27.057 33.591 29.566
H 27.111 32.639 28.995
H 27.213 34.187 28.691
C 28.257 33.746 30.519
H 29.185 33.699 29.982
H 28.137 34.724 31.024
H 28.398 32.942 31.244
N 22.768 30.746 31.23 
C 24.037 30.496 30.761
C 24.151 29.004 30.633
C 22.857 28.554 31.039
C 22.02  29.622 31.32 
C 25.406 28.162 30.29 
H 26.101 28.746 29.617
H 25.864 28.027 31.257
H 25.071 27.277 29.843
C 22.163 27.367 31.205
O 22.535 26.226 31.076
C 20.675 27.773 31.439
H 20.32  27.176 32.321
C 20.059 27.459 30.086
O 20.373 27.951 29.026
O 19.166 26.421 30.338
C 18.783 25.658 29.195
H 18.106 26.227 28.571
H 19.749 25.431 28.6  
H 18.316 24.744 29.455
C 14.582 28.13  36.436
H 15.066 27.783 37.368
H 13.908 27.296 36.006
C 13.58  29.277 36.616
H 12.527 28.972 36.764
C 13.676 30.574 36.317
C 15.069 31.284 36.066
H 15.882 30.652 36.412
H 15.087 31.438 34.979
H 15.147 32.238 36.663
C 12.497 31.514 35.939
H 11.603 30.918 35.773
H 12.663 32.042 35.016
C 12.144 32.546 37.148
H 13.029 32.78  37.778
H 11.411 32.133 37.853
C 11.553 33.869 36.61 
H 10.626 34.103 37.281
H 11.233 33.8   35.541
C 12.332 35.265 36.774
H 12.679 35.197 37.801
C 11.524 36.569 36.565
H 11.95  37.29  37.287
H 11.451 36.975 35.465
H 10.503 36.386 36.825
C 13.562 35.369 35.869
H 14.166 34.41  36.19 
H 14.185 36.096 36.211
C 13.463 35.172 34.33 
H 12.39  35.365 34.177
H 13.749 34.169 33.943
C 14.259 36.271 33.552
H 15.168 35.872 33.076
H 14.678 36.963 34.318
C 13.427 37.16  32.592
H 12.444 37.54  32.904
C 13.103 36.482 31.299
H 13.969 36.385 30.645
H 12.888 35.433 31.582
H 12.257 36.975 30.865
C 14.14  38.547 32.416
H 13.653 39.041 31.567
H 15.146 38.493 32.085
C 14.138 39.525 33.647
H 13.441 39.104 34.373
H 13.78  40.556 33.319
C 15.517 39.574 34.339
H 16.044 38.621 34.071
H 15.402 39.523 35.4  
C 16.291 40.867 34.053
H 15.58  41.598 34.067
C 16.733 40.901 32.576
H 15.834 40.819 31.905
H 17.334 41.752 32.33 
H 17.337 40.039 32.434
C 17.47  40.966 35.087
H 17.929 41.926 34.871
H 16.911 41.178 35.998
H 18.093 40.089 35.207
