137

Mg 26.581 31.639 39.85 
C 24.893 28.527 40.021
C 23.62  33.082 38.965
H 22.76  33.669 38.764
C 28.12  34.629 40.19 
H 28.712 35.585 40.371
C 29.381 29.968 40.876
H 30.406 29.513 41.053
N 24.496 30.9   39.699
C 24.039 29.612 39.791
C 22.514 29.494 39.484
H 22.175 28.79  38.732
C 22.198 30.946 38.978
H 21.525 31.339 39.635
C 23.547 31.706 39.183
C 21.602 30.924 37.54 
H 21.101 31.877 37.345
H 22.3   30.771 36.746
H 20.855 30.159 37.435
C 21.761 29.201 40.838
H 22.071 29.882 41.597
H 22.132 28.221 41.16 
C 20.228 29.234 40.839
H 19.822 29.116 39.855
H 19.877 28.343 41.475
C 19.568 30.444 41.507
O 19.491 30.613 42.721
O 19.3   31.297 40.511
N 25.935 33.598 39.5  
C 24.693 34.025 39.103
C 24.727 35.457 38.723
C 25.924 35.847 39.238
C 26.721 34.682 39.762
C 23.579 36.112 38.018
H 22.989 35.509 37.318
H 22.866 36.502 38.691
H 24.065 36.926 37.45 
C 26.455 37.191 39.384
H 27.563 37.251 39.422
C 25.733 38.309 39.572
H 24.66  38.31  39.803
H 26.283 39.277 39.684
N 28.411 32.197 40.397
C 28.925 33.471 40.413
C 30.364 33.477 40.739
C 30.593 32.127 40.948
C 29.42  31.378 40.728
C 31.224 34.695 41.011
H 32.317 34.49  40.942
H 30.944 35.512 40.32 
H 30.978 34.943 42.059
C 31.927 31.617 41.432
H 32.315 30.853 40.732
H 32.646 32.368 41.534
C 31.865 30.984 42.758
H 32.837 30.623 43.162
H 31.528 31.696 43.462
H 31.203 30.11  42.769
N 27.15  29.733 40.296
C 28.304 29.161 40.682
C 28.131 27.731 40.882
C 26.863 27.444 40.52 
C 26.279 28.664 40.232
C 29.09  26.788 41.387
H 28.88  25.867 40.819
H 30.082 27.095 41.19 
H 28.931 26.661 42.413
C 25.871 26.394 40.335
O 25.964 25.188 40.522
C 24.629 27.052 39.774
H 23.731 26.575 40.26 
C 24.679 26.777 38.282
O 25.535 27.007 37.433
O 23.511 26.105 38.002
C 23.369 25.554 36.659
H 22.512 24.95  36.657
H 23.277 26.314 35.862
H 24.227 24.896 36.538
C 18.824 32.602 40.991
H 19.22  32.888 41.968
H 17.756 32.395 41.19 
C 18.907 33.739 39.91 
H 18.226 33.553 39.072
C 19.608 34.891 39.856
C 20.512 35.285 40.96 
H 20.217 36.18  41.505
H 20.657 34.554 41.74 
H 21.515 35.5   40.562
C 19.475 35.573 38.521
H 19.471 34.859 37.799
H 20.38  36.227 38.402
C 18.234 36.535 38.534
H 18.701 37.493 38.645
H 17.586 36.304 39.435
C 17.411 36.438 37.274
H 16.429 36.145 37.59 
H 17.773 35.582 36.64 
C 17.503 37.703 36.362
H 17.208 38.509 36.961
C 16.411 37.46  35.307
H 16.322 38.381 34.705
H 16.632 36.562 34.676
H 15.488 37.262 35.828
C 18.944 38.127 35.884
H 19.568 38.377 36.734
H 18.876 39.034 35.351
C 19.751 37.06  35.13 
H 19.21  36.111 35.293
H 20.795 37.098 35.497
C 19.789 37.459 33.658
H 20.726 37.975 33.524
H 19.028 38.204 33.361
C 19.705 36.226 32.678
H 19.984 35.389 33.188
C 20.874 36.326 31.654
H 20.8   35.43  31.008
H 20.836 37.282 31.096
H 21.875 36.378 32.076
C 18.46  36.061 31.871
H 18.567 36.725 31.02 
H 17.628 36.539 32.294
C 18.189 34.594 31.564
H 17.179 34.515 31.847
H 18.826 33.856 32.158
C 18.45  34.228 30.069
H 19.258 33.488 30.222
H 18.919 35.112 29.534
C 17.344 33.519 29.245
H 17.008 32.589 29.643
C 17.779 33.21  27.768
H 16.932 32.976 27.122
H 18.214 34.116 27.272
H 18.515 32.447 27.699
C 16.137 34.46  29.212
H 15.316 34.102 28.614
H 15.652 34.691 30.185
H 16.333 35.382 28.629
