137

Mg 26.627 32.01  40.039
C 25.025 28.876 40.227
C 23.601 33.359 39.021
H 22.617 33.716 38.753
C 27.895 35.11  40.477
H 28.394 36.086 40.67 
C 29.546 30.596 41.094
H 30.43  30.054 41.408
N 24.569 31.19  39.346
C 24.155 29.886 39.738
C 22.641 29.705 39.441
H 22.531 28.955 38.663
C 22.304 31.114 38.736
H 21.458 31.582 39.297
C 23.538 31.911 39.021
C 22.016 31.077 37.232
H 21.418 31.978 37.014
H 22.962 31.113 36.618
H 21.314 30.291 36.921
C 21.865 29.309 40.717
H 21.906 30.205 41.365
H 22.382 28.542 41.295
C 20.413 28.837 40.509
H 20.16  28.792 39.467
H 20.283 27.917 40.893
C 19.236 29.671 40.938
O 18.409 29.384 41.819
O 19.266 30.844 40.185
N 25.87  33.934 39.858
C 24.579 34.292 39.47 
C 24.43  35.696 39.428
C 25.731 36.217 39.766
C 26.552 35.081 40.027
C 23.194 36.556 38.927
H 22.421 35.98  38.5  
H 22.672 36.991 39.787
H 23.608 37.23  38.263
C 26.188 37.621 39.929
H 27.258 37.732 39.796
C 25.403 38.667 40.183
H 24.319 38.736 40.137
H 25.832 39.66  40.396
N 28.367 32.717 40.674
C 28.751 34.01  40.635
C 30.2   34.109 40.964
C 30.665 32.803 41.319
C 29.497 32.002 41.086
C 30.882 35.571 41.058
H 31.759 35.683 41.745
H 31.038 35.811 39.973
H 30.264 36.394 41.505
C 32.108 32.412 41.753
H 32.543 31.753 41.067
H 32.793 33.252 41.752
C 32.147 31.755 43.1  
H 33.134 31.695 43.339
H 31.66  32.414 43.876
H 31.703 30.795 43.003
N 27.27  30.136 40.584
C 28.536 29.651 40.791
C 28.367 28.18  41.09 
C 27.038 27.912 40.894
C 26.426 29.072 40.506
C 29.422 27.173 41.486
H 30.168 27.223 40.772
H 29.776 27.322 42.555
H 28.88  26.186 41.436
C 26.062 26.831 41.027
O 26.18  25.669 41.357
C 24.822 27.373 40.438
H 23.996 27.051 41.08 
C 24.627 26.666 39.137
O 25.469 26.49  38.229
O 23.33  26.257 39.114
C 23.    25.395 38.009
H 22.173 24.773 38.363
H 22.729 25.851 37.067
H 23.761 24.558 37.838
C 18.066 31.664 40.551
H 18.16  32.046 41.585
H 17.073 31.152 40.451
C 17.999 32.881 39.598
H 17.871 32.59  38.579
C 18.242 34.193 39.753
C 18.536 34.928 41.05 
H 18.562 34.203 41.836
H 19.515 35.412 40.886
H 17.881 35.77  41.234
C 18.229 35.169 38.585
H 18.146 34.551 37.709
H 19.22  35.545 38.43 
C 17.273 36.412 38.584
H 17.968 37.255 38.729
H 16.596 36.247 39.395
C 16.534 36.603 37.236
H 15.483 36.489 37.385
H 16.888 35.744 36.712
C 16.899 37.915 36.449
H 16.695 38.727 37.069
C 15.992 38.073 35.25 
H 16.041 39.13  34.97 
H 16.276 37.358 34.465
H 14.971 37.847 35.536
C 18.301 38.101 36.006
H 19.011 38.225 36.892
H 18.291 39.041 35.497
C 18.813 36.993 35.138
H 18.078 36.205 35.017
H 19.719 36.502 35.521
C 19.256 37.509 33.785
H 20.174 38.086 33.888
H 18.415 38.196 33.429
C 19.565 36.386 32.772
H 20.038 35.687 33.35 
C 20.565 36.866 31.692
H 20.907 35.969 31.211
H 20.018 37.512 31.044
H 21.382 37.482 32.108
C 18.301 35.738 32.181
H 17.793 36.447 31.526
H 17.71  35.456 33.041
C 18.536 34.427 31.438
H 17.968 33.546 31.847
H 19.585 34.188 31.479
C 18.113 34.523 29.94 
H 19.013 34.314 29.312
H 17.786 35.538 29.651
C 16.953 33.607 29.512
H 17.253 32.635 29.87 
C 16.78  33.614 27.965
H 15.908 32.987 27.649
H 16.463 34.603 27.645
H 17.669 33.36  27.422
C 15.659 34.034 30.184
H 14.928 33.244 29.948
H 15.596 33.918 31.268
H 15.321 35.033 29.898
