137

Mg 27.299 28.602 43.62 
C 25.599 25.977 42.138
C 28.66  29.342 40.566
H 29.099 29.584 39.582
C 28.475 31.543 44.907
H 29.042 32.439 45.364
C 25.804 27.986 46.592
H 25.3   27.749 47.583
N 27.182 27.75  41.602
C 26.419 26.674 41.204
C 26.608 26.358 39.735
H 26.909 25.338 39.582
C 27.75  27.372 39.268
H 27.36  28.064 38.501
C 27.953 28.184 40.566
C 29.049 26.629 38.887
H 29.982 27.211 38.873
H 29.153 25.694 39.451
H 28.938 26.314 37.879
C 25.288 26.323 38.871
H 24.78  27.237 39.054
H 24.664 25.549 39.255
C 25.296 26.018 37.335
H 26.372 26.082 37.12 
H 25.09  24.961 37.093
C 24.349 26.9   36.435
O 24.512 27.885 35.739
O 23.107 26.38  36.761
N 28.356 30.17  42.848
C 28.883 30.261 41.562
C 29.573 31.526 41.431
C 29.587 32.146 42.653
C 28.759 31.293 43.561
C 30.106 32.04  40.096
H 31.144 31.674 39.91 
H 29.382 31.812 39.287
H 30.291 33.073 40.244
C 30.081 33.524 43.097
H 31.196 33.745 42.976
C 29.383 34.518 43.647
H 28.31  34.494 43.801
H 29.894 35.501 43.864
N 27.15  29.608 45.455
C 27.802 30.789 45.835
C 27.493 31.009 47.207
C 26.629 30.059 47.677
C 26.554 29.138 46.578
C 27.957 32.199 47.922
H 27.358 32.211 48.776
H 28.972 31.919 48.032
H 27.896 33.128 47.298
C 25.982 29.887 48.966
H 26.077 28.854 49.268
H 26.36  30.512 49.732
C 24.436 30.153 48.898
H 24.309 31.216 48.63 
H 24.013 29.541 48.113
H 23.869 30.029 49.856
N 25.986 27.297 44.243
C 25.51  27.134 45.527
C 24.628 25.895 45.616
C 24.679 25.422 44.289
C 25.516 26.32  43.517
C 23.89  25.363 46.82 
H 23.556 24.316 46.712
H 24.525 25.3   47.696
H 22.933 25.963 47.069
C 24.145 24.411 43.37 
O 23.298 23.51  43.604
C 24.827 24.707 41.879
H 24.027 24.861 41.202
C 25.628 23.541 41.61 
O 26.601 23.229 42.269
O 25.209 22.917 40.439
C 25.935 21.611 40.228
H 25.56  21.215 39.306
H 27.013 21.786 40.184
H 25.64  21.058 41.088
C 21.953 26.929 36.103
H 22.06  27.003 35.023
H 21.785 27.928 36.535
C 20.848 26.068 36.46 
H 20.264 26.38  37.35 
C 20.333 25.015 35.859
C 20.89  24.356 34.553
H 21.902 24.623 34.278
H 20.813 23.257 34.633
H 20.245 24.741 33.726
C 19.146 24.213 36.421
H 19.277 24.208 37.44 
H 19.207 23.208 36.024
C 17.777 24.765 36.212
H 17.043 23.971 36.086
H 17.718 25.416 35.376
C 17.34  25.576 37.491
H 18.278 26.054 37.766
H 16.959 24.927 38.246
C 16.259 26.714 37.283
H 16.722 27.512 36.64 
C 16.092 27.376 38.745
H 15.16  27.982 38.769
H 15.922 26.561 39.499
H 16.876 28.11  38.98 
C 14.862 26.351 36.689
H 14.988 25.985 35.685
H 14.305 27.333 36.631
C 14.1   25.186 37.442
H 13.119 25.633 37.756
H 14.7   24.888 38.314
C 13.93  23.963 36.653
H 13.961 23.114 37.352
H 14.852 23.893 35.973
C 12.545 23.66  35.948
H 11.747 24.024 36.584
C 12.348 22.122 35.637
H 13.072 21.686 35.025
H 12.246 21.536 36.552
H 11.46  21.997 35.053
C 12.529 24.406 34.598
H 13.138 23.804 33.978
H 12.943 25.369 34.758
C 11.118 24.535 34.037
H 10.865 25.589 33.937
H 10.335 24.259 34.79 
C 10.869 23.879 32.724
H 10.642 22.888 32.874
H 11.808 23.972 32.236
C  9.743 24.411 31.747
H  9.913 25.39  31.427
C  8.366 24.182 32.48 
H  8.281 24.634 33.425
H  7.654 24.519 31.797
H  8.297 23.114 32.646
C  9.85  23.673 30.348
H  9.062 24.101 29.681
H 10.86  23.951 30.001
H  9.691 22.613 30.493
