137

Mg 37.106 33.032 35.906
C 34.54  31.214 34.471
C 38.989 32.308 33.11 
H 39.455 31.929 32.222
C 39.788 34.393 37.449
H 40.677 34.761 37.909
C 35.559 32.692 38.992
H 35.283 32.636 39.991
N 36.78  32.147 33.965
C 35.588 31.524 33.59 
C 35.631 31.185 32.045
H 35.309 30.17  31.955
C 37.139 31.19  31.724
H 37.304 31.747 30.806
C 37.653 31.908 33.03 
C 37.765 29.831 31.492
H 38.86  29.956 31.408
H 37.482 29.173 32.327
H 37.407 29.55  30.511
C 34.745 32.169 31.347
H 35.169 33.252 31.475
H 33.786 32.075 31.845
C 34.449 31.918 29.841
H 34.606 32.816 29.305
H 35.054 31.182 29.365
C 33.083 31.591 29.357
O 32.726 30.462 29.007
O 32.268 32.696 29.252
N 38.993 33.518 35.271
C 39.605 33.143 34.096
C 40.903 33.749 34.1  
C 41.151 34.318 35.332
C 39.915 34.124 36.076
C 41.834 33.515 32.908
H 42.448 34.402 32.591
H 42.46  32.659 33.082
H 41.364 33.312 31.975
C 42.279 35.149 35.885
H 42.23  35.473 36.966
C 43.296 35.638 35.087
H 43.376 35.39  34.02 
H 44.031 36.333 35.46 
N 37.557 33.603 37.857
C 38.699 34.229 38.3  
C 38.555 34.661 39.706
C 37.305 34.214 40.062
C 36.711 33.492 38.955
C 39.548 35.301 40.454
H 39.336 36.396 40.613
H 39.679 34.769 41.391
H 40.538 35.121 40.044
C 36.647 34.423 41.382
H 36.398 33.46  41.868
H 37.359 34.826 42.067
C 35.367 35.23  41.382
H 34.94  35.436 42.379
H 35.602 36.212 40.885
H 34.639 34.736 40.801
N 35.397 32.136 36.603
C 34.836 32.168 37.84 
C 33.488 31.624 37.865
C 33.35  31.243 36.53 
C 34.508 31.506 35.828
C 32.596 31.539 39.04 
H 32.719 30.616 39.601
H 32.79  32.33  39.771
H 31.633 31.66  38.597
C 32.401 30.557 35.548
O 31.258 30.173 35.583
C 33.166 30.627 34.143
H 32.555 31.251 33.542
C 33.256 29.248 33.646
O 33.791 28.278 34.128
O 32.767 29.292 32.388
C 32.921 28.    31.68 
H 32.276 27.176 32.034
H 32.741 28.325 30.756
H 33.909 27.593 31.674
C 31.179 32.628 28.257
H 30.396 32.006 28.578
H 31.671 32.212 27.335
C 30.515 34.037 27.969
H 31.033 34.762 27.335
C 29.187 34.242 28.153
C 28.294 33.384 29.044
H 27.993 32.479 28.505
H 28.9   33.199 29.932
H 27.457 33.924 29.381
C 28.659 35.52  27.561
H 29.43  36.067 26.935
H 28.446 36.112 28.412
C 27.545 35.359 26.593
H 27.237 34.351 26.393
H 27.749 35.784 25.63 
C 26.249 35.996 27.122
H 26.488 36.694 27.912
H 25.531 35.246 27.414
C 25.234 36.696 26.147
H 25.256 36.025 25.276
C 25.814 38.074 25.601
H 25.798 38.816 26.397
H 26.874 37.919 25.362
H 25.279 38.414 24.773
C 23.818 36.973 26.728
H 23.277 37.495 25.892
H 23.779 37.584 27.612
C 22.912 35.696 26.999
H 23.406 34.853 26.535
H 21.894 35.849 26.497
C 22.665 35.388 28.546
H 21.596 35.774 28.73 
H 23.23  36.194 29.097
C 22.832 33.97  29.092
H 23.852 33.604 28.838
C 21.861 33.024 28.304
H 22.082 31.988 28.623
H 20.855 33.244 28.532
H 22.164 33.1   27.266
C 22.66  33.914 30.64 
H 22.819 32.895 30.948
H 21.676 34.28  30.876
C 23.736 34.683 31.483
H 23.626 35.732 31.503
H 24.751 34.525 30.996
C 23.836 33.975 32.866
H 22.961 33.21  33.072
H 23.634 34.826 33.515
C 25.045 33.114 33.26 
H 25.901 33.771 33.242
C 25.444 31.953 32.283
H 25.696 32.415 31.306
H 26.396 31.609 32.611
H 24.724 31.13  32.16 
C 24.943 32.601 34.767
H 25.88  32.098 35.071
H 24.797 33.375 35.506
H 24.208 31.761 34.76 
