137

Mg 35.353 32.883 34.974
C 33.343 30.646 33.297
C 37.98  32.116 32.701
H 38.702 31.943 31.9  
C 37.295 35.259 36.348
H 37.977 36.026 36.86 
C 32.767 33.586 37.142
H 32.024 33.751 37.913
N 35.608 31.648 33.228
C 34.617 30.815 32.772
C 35.101 30.055 31.526
H 34.914 28.98  31.715
C 36.555 30.31  31.414
H 36.852 30.737 30.446
C 36.763 31.43  32.536
C 37.446 29.031 31.68 
H 37.389 28.606 32.695
H 37.21  28.266 30.98 
H 38.509 29.203 31.473
C 34.315 30.362 30.25 
H 34.653 31.311 29.836
H 33.293 30.629 30.509
C 34.519 29.301 29.225
H 35.292 29.624 28.516
H 34.828 28.34  29.614
C 33.391 28.94  28.301
O 33.4   29.055 27.083
O 32.324 28.428 29.006
N 37.289 33.56  34.623
C 38.168 33.156 33.627
C 39.436 33.839 33.782
C 39.235 34.872 34.749
C 37.877 34.528 35.331
C 40.676 33.675 32.894
H 40.503 33.022 32.012
H 40.898 34.613 32.436
H 41.553 33.456 33.5  
C 40.167 35.974 35.137
H 39.879 36.759 35.859
C 41.424 36.181 34.653
H 41.936 35.476 34.018
H 42.07  36.976 35.055
N 35.127 34.173 36.608
C 36.02  35.127 37.015
C 35.521 35.869 38.117
C 34.212 35.422 38.323
C 33.969 34.333 37.328
C 36.29  37.004 38.818
H 36.963 36.561 39.506
H 36.845 37.569 37.988
H 35.583 37.61  39.355
C 33.297 35.9   39.413
H 32.707 35.029 39.805
H 33.836 36.567 40.182
C 32.099 36.731 38.86 
H 31.617 36.027 38.209
H 31.43  37.11  39.637
H 32.367 37.57  38.248
N 33.599 32.159 35.285
C 32.532 32.621 36.119
C 31.334 31.871 35.907
C 31.71  31.07  34.816
C 32.977 31.266 34.474
C 30.125 31.914 36.703
H 29.887 32.964 36.833
H 29.281 31.312 36.245
H 30.401 31.528 37.649
C 31.118 30.037 33.893
O 29.976 29.573 33.786
C 32.224 29.709 32.855
H 31.795 29.787 31.888
C 32.646 28.24  33.113
O 33.712 27.839 33.452
O 31.568 27.542 32.694
C 31.811 26.173 32.438
H 32.217 25.708 33.412
H 31.006 25.564 32.048
H 32.692 26.024 31.82 
C 31.297 27.669 28.263
H 31.774 26.821 27.692
H 30.824 28.376 27.567
C 30.132 27.131 29.097
H 29.724 27.952 29.739
C 29.494 25.89  29.221
C 29.929 24.697 28.467
H 31.04  24.664 28.52 
H 29.525 23.832 29.004
H 29.48  24.569 27.481
C 28.314 25.704 30.154
H 28.365 26.48  30.849
H 28.452 24.852 30.85 
C 26.946 25.524 29.52 
H 26.812 24.568 29.077
H 26.828 26.231 28.707
C 25.816 25.544 30.601
H 25.579 26.601 30.656
H 26.246 25.328 31.577
C 24.631 24.49  30.439
H 25.013 23.404 30.542
C 23.995 24.608 29.02 
H 22.942 24.386 29.009
H 24.045 25.653 28.855
H 24.555 24.093 28.296
C 23.636 24.488 31.538
H 24.066 24.089 32.438
H 22.889 23.759 31.318
C 22.881 25.849 31.603
H 21.788 25.617 31.694
H 23.088 26.384 30.685
C 23.266 26.601 32.863
H 23.549 27.581 32.48 
H 24.145 26.139 33.318
C 22.285 26.831 33.898
H 21.321 27.037 33.435
C 22.78  27.922 34.912
H 23.071 28.802 34.406
H 22.086 28.135 35.707
H 23.702 27.532 35.355
C 21.985 25.468 34.646
H 22.881 25.141 35.178
H 21.796 24.703 33.855
C 20.846 25.66  35.674
H 20.09  25.019 35.342
H 20.532 26.699 35.75 
C 21.223 25.194 37.044
H 21.319 26.029 37.741
H 22.28  24.885 37.158
C 20.221 24.168 37.644
H 20.392 23.278 37.054
C 18.771 24.694 37.668
H 18.076 23.915 37.919
H 18.817 25.432 38.401
H 18.364 25.16  36.728
C 20.73  23.83  39.068
H 20.005 23.149 39.493
H 21.751 23.492 38.989
H 20.754 24.725 39.686
