137

Mg 21.059 18.581 23.199
C 24.115 19.28  21.853
C 21.153 21.599 25.005
H 21.316 22.427 25.663
C 17.89  18.048 24.255
H 16.946 17.748 24.707
C 20.985 15.565 21.404
H 20.89  14.682 20.794
N 22.509 20.22  23.554
C 23.712 20.279 22.843
C 24.54  21.491 23.301
H 25.445 21.145 23.824
C 23.555 22.246 24.232
H 23.319 23.24  23.795
C 22.297 21.306 24.28 
C 24.237 22.392 25.647
H 24.62  21.449 25.987
H 25.028 23.125 25.702
H 23.498 22.673 26.398
C 24.98  22.445 22.093
H 24.139 22.86  21.478
H 25.6   21.769 21.425
C 25.974 23.566 22.329
H 26.013 23.771 23.411
H 26.985 23.237 21.985
C 25.592 24.704 21.519
O 25.801 24.884 20.332
O 24.876 25.672 22.252
N 19.656 19.733 24.354
C 19.896 20.887 25.045
C 18.674 21.285 25.733
C 17.686 20.323 25.421
C 18.41  19.3   24.667
C 18.556 22.591 26.42 
H 18.153 22.398 27.417
H 19.397 23.261 26.566
H 17.76  23.142 25.904
C 16.281 20.214 25.875
H 15.716 19.372 25.49 
C 15.499 21.08  26.553
H 15.901 22.038 26.934
H 14.45  20.844 26.822
N 19.625 17.095 22.796
C 18.475 17.017 23.44 
C 17.775 15.774 23.051
C 18.624 15.11  22.159
C 19.81  15.918 22.133
C 16.468 15.417 23.56 
H 15.795 16.164 23.213
H 16.054 14.475 23.225
H 16.548 15.318 24.617
C 18.383 13.897 21.275
H 19.265 13.274 21.3  
H 17.47  13.295 21.572
C 18.398 14.251 19.818
H 18.313 13.312 19.297
H 17.432 14.762 19.57 
H 19.223 14.9   19.512
N 22.207 17.687 21.776
C 22.116 16.354 21.26 
C 23.337 16.098 20.423
C 24.092 17.25  20.582
C 23.354 18.176 21.409
C 23.66  14.881 19.566
H 24.661 14.948 18.958
H 23.679 13.939 20.187
H 22.846 14.965 18.852
C 25.364 17.882 20.211
O 26.269 17.545 19.444
C 25.411 19.249 21.023
H 25.443 19.984 20.207
C 26.757 19.177 21.79 
O 26.817 18.6   22.851
O 27.656 20.015 21.333
C 28.544 20.427 22.384
H 29.222 19.587 22.646
H 29.255 21.223 22.081
H 28.032 20.907 23.236
C 24.479 26.831 21.496
H 23.546 26.652 20.899
H 25.229 27.254 20.815
C 24.109 27.935 22.498
H 23.073 27.973 22.908
C 24.911 28.897 23.008
C 26.397 28.847 22.848
H 26.583 27.779 22.521
H 26.699 29.584 22.083
H 26.906 29.134 23.739
C 24.275 29.839 24.035
H 24.746 29.693 25.032
H 23.207 29.677 24.103
C 24.403 31.273 23.612
H 24.969 31.343 22.623
H 25.039 31.783 24.359
C 23.099 32.04  23.401
H 22.244 31.426 23.446
H 23.118 32.472 22.449
C 22.862 33.126 24.483
H 23.849 33.66  24.64 
C 22.414 32.648 25.816
H 21.492 32.14  25.798
H 23.206 32.003 26.222
H 22.51  33.446 26.534
C 21.897 34.261 23.979
H 21.741 34.847 24.822
H 20.935 33.782 23.725
C 22.317 35.113 22.779
H 21.714 34.752 21.908
H 23.386 34.917 22.504
C 22.213 36.592 22.961
H 23.219 36.979 22.875
H 21.962 36.82  24.015
C 21.251 37.329 22.021
H 21.419 36.882 21.04 
C 21.472 38.904 21.968
H 20.7   39.16  21.227
H 21.136 39.167 23.025
H 22.499 39.019 21.659
C 19.736 36.99  22.282
H 19.54  37.44  23.264
H 19.69  35.945 22.429
C 18.552 37.39  21.294
H 17.781 36.641 21.097
H 19.036 37.734 20.345
C 17.787 38.575 21.899
H 18.074 38.899 22.87 
H 16.743 38.31  21.979
C 17.854 39.882 21.099
H 18.863 40.262 21.091
C 17.12  40.972 21.882
H 17.703 41.226 22.758
H 17.105 42.002 21.464
H 16.163 40.663 22.256
C 17.223 39.753 19.658
H 17.671 38.969 19.014
H 16.231 39.452 19.736
H 17.22  40.783 19.252
