137

Mg 23.493 17.661 27.588
C 24.037 15.26  25.162
C 25.652 19.659 25.998
H 26.295 20.308 25.353
C 23.315 19.677 30.261
H 23.231 20.316 31.166
C 21.409 15.32  29.182
H 20.571 14.634 29.419
N 24.738 17.486 25.826
C 24.75  16.452 24.891
C 25.812 16.795 23.72 
H 26.624 16.124 23.591
C 26.367 18.192 24.148
H 25.908 18.821 23.346
C 25.494 18.444 25.383
C 27.857 18.057 24.517
H 28.457 17.579 23.788
H 28.223 19.066 24.52 
H 28.008 17.52  25.483
C 25.146 16.786 22.318
H 24.241 17.394 22.427
H 24.832 15.798 22.082
C 26.057 17.263 21.144
H 27.023 17.476 21.458
H 26.094 16.563 20.341
C 25.499 18.392 20.319
O 25.548 18.536 19.113
O 24.959 19.354 21.111
N 24.4   19.334 28.09 
C 25.299 20.032 27.31 
C 25.608 21.265 27.972
C 25.006 21.264 29.176
C 24.224 20.032 29.249
C 26.421 22.377 27.28 
H 26.187 22.616 26.138
H 26.45  23.232 27.927
H 27.456 22.082 27.266
C 25.094 22.227 30.313
H 24.273 22.258 31.014
C 26.205 22.917 30.606
H 27.197 22.773 30.061
H 26.172 23.516 31.481
N 22.452 17.625 29.41 
C 22.495 18.544 30.373
C 21.665 18.091 31.549
C 20.983 16.961 31.066
C 21.655 16.582 29.805
C 21.64  18.683 32.885
H 20.638 18.59  33.228
H 22.354 18.069 33.471
H 21.916 19.754 32.835
C 19.976 16.091 31.746
H 20.28  15.07  31.667
H 19.87  16.319 32.799
C 18.61  16.28  31.053
H 18.347 15.485 30.404
H 17.852 16.383 31.803
H 18.658 17.229 30.464
N 22.81  15.705 27.278
C 21.972 14.864 27.987
C 21.818 13.555 27.299
C 22.594 13.774 26.187
C 23.212 14.998 26.226
C 21.012 12.3   27.577
H 20.025 12.46  28.059
H 20.959 11.752 26.658
H 21.563 11.778 28.332
C 23.02  13.049 24.963
O 22.729 11.995 24.46 
C 23.921 14.056 24.242
H 23.414 14.209 23.315
C 25.186 13.359 24.042
O 25.967 13.176 24.933
O 25.315 12.993 22.732
C 26.455 12.153 22.445
H 27.371 12.789 22.612
H 26.445 11.42  23.24 
H 26.369 11.71  21.432
C 24.683 20.679 20.498
H 23.763 20.658 19.914
H 25.527 21.041 19.943
C 24.573 21.553 21.809
H 25.47  21.428 22.469
C 23.525 22.216 22.255
C 22.158 22.112 21.598
H 21.377 21.583 22.167
H 21.822 23.079 21.377
H 22.141 21.652 20.625
C 23.638 22.696 23.725
H 24.575 22.4   24.202
H 22.839 22.237 24.222
C 23.471 24.243 23.859
H 22.37  24.452 23.768
H 23.912 24.8   22.988
C 24.148 24.909 25.12 
H 24.597 24.15  25.842
H 23.35  25.335 25.75 
C 25.353 25.88  24.98 
H 25.263 26.526 24.089
C 26.679 25.153 24.803
H 27.054 24.777 25.764
H 26.452 24.311 24.155
H 27.444 25.819 24.361
C 25.495 26.782 26.224
H 26.426 27.318 26.095
H 25.652 26.151 27.104
C 24.509 27.95  26.379
H 23.809 27.887 25.541
H 24.937 28.914 26.381
C 23.599 27.881 27.626
H 24.056 28.209 28.546
H 23.384 26.873 27.677
C 22.148 28.437 27.521
H 21.603 27.903 26.789
C 22.178 29.936 27.134
H 22.724 30.047 26.254
H 21.18  30.42  26.977
H 22.567 30.578 27.97 
C 21.415 28.25  28.834
H 21.967 28.783 29.572
H 21.518 27.161 29.004
C 19.933 28.665 28.931
H 19.576 28.861 27.898
H 19.954 29.603 29.446
C 19.143 27.691 29.869
H 19.847 26.948 30.173
H 18.329 27.24  29.313
C 18.611 28.343 31.202
H 19.347 28.956 31.655
C 18.109 27.346 32.259
H 17.828 27.975 33.112
H 17.287 26.73  31.866
H 18.916 26.703 32.575
C 17.468 29.317 30.928
H 16.682 28.692 30.462
H 17.093 29.849 31.795
H 17.789 30.046 30.156
