137

Mg 23.837 30.567 32.226
C 22.872 27.589 33.669
C 20.707 30.63  30.786
H 19.747 30.636 30.327
C 24.758 33.168 30.335
H 25.081 34.067 29.829
C 26.975 30.139 33.447
H 28.094 29.907 33.537
N 21.956 29.42  32.355
C 21.789 28.243 33.107
C 20.318 27.845 33.116
H 20.401 26.964 32.525
C 19.603 28.866 32.216
H 18.819 29.483 32.654
C 20.792 29.741 31.839
C 18.884 28.155 31.001
H 18.483 28.825 30.303
H 19.547 27.498 30.459
H 18.085 27.553 31.424
C 19.752 27.814 34.57 
H 19.859 28.861 34.956
H 20.273 27.118 35.157
C 18.297 27.348 34.794
H 17.932 26.977 33.837
H 18.243 26.491 35.448
C 17.279 28.332 35.439
O 17.101 28.433 36.67 
O 16.768 29.264 34.478
N 22.863 31.805 30.803
C 21.573 31.675 30.376
C 21.319 32.686 29.358
C 22.513 33.404 29.228
C 23.434 32.827 30.128
C 20.007 32.67  28.553
H 19.186 33.275 28.907
H 20.332 32.92  27.545
H 19.626 31.676 28.483
C 22.767 34.614 28.392
H 23.767 34.818 28.124
C 21.724 35.37  27.91 
H 20.697 35.067 28.103
H 21.813 36.241 27.287
N 25.581 31.556 31.948
C 25.761 32.589 31.093
C 27.219 32.911 31.135
C 27.735 32.178 32.145
C 26.774 31.234 32.564
C 27.858 34.037 30.252
H 27.255 34.355 29.451
H 27.899 34.888 30.915
H 28.867 33.772 29.941
C 29.161 32.39  32.624
H 29.762 31.591 32.426
H 29.575 33.3   32.188
C 29.23  32.705 34.124
H 29.174 31.802 34.703
H 30.302 33.047 34.2  
H 28.509 33.499 34.349
N 24.721 29.287 33.337
C 26.047 29.176 33.743
C 26.304 27.865 34.407
C 25.007 27.304 34.444
C 24.154 28.105 33.726
C 27.616 27.449 35.057
H 28.411 27.569 34.268
H 27.754 28.077 35.917
H 27.521 26.391 35.396
C 24.377 26.117 34.895
O 24.871 25.115 35.423
C 22.909 26.246 34.322
H 22.183 26.14  35.083
C 22.841 25.058 33.373
O 23.168 24.984 32.203
O 22.419 23.923 34.003
C 22.34  22.708 33.144
H 23.426 22.646 32.826
H 22.02  21.873 33.716
H 21.698 22.772 32.256
C 16.104 30.362 35.103
H 16.753 31.105 35.62 
H 15.319 30.049 35.784
C 15.35  31.023 33.994
H 14.423 30.485 33.817
C 15.716 32.154 33.366
C 17.081 32.839 33.605
H 17.84  32.215 34.189
H 17.543 33.115 32.718
H 16.937 33.818 34.224
C 14.918 32.772 32.257
H 14.472 31.916 31.68 
H 15.695 33.19  31.596
C 13.976 33.875 32.803
H 14.128 33.992 33.847
H 12.935 33.523 32.725
C 14.189 35.29  32.111
H 13.387 35.384 31.313
H 15.207 35.38  31.612
C 13.927 36.524 32.999
H 12.91  36.292 33.465
C 13.884 37.816 32.129
H 13.585 38.703 32.712
H 14.91  37.938 31.752
H 13.229 37.676 31.234
C 14.944 36.663 34.168
H 14.776 35.807 34.815
H 14.743 37.633 34.722
C 16.513 36.654 33.814
H 16.721 36.181 32.82 
H 16.972 36.084 34.677
C 17.077 38.155 33.782
H 17.523 38.209 34.787
H 16.312 38.955 33.782
C 18.189 38.61  32.706
H 17.771 38.555 31.677
C 19.339 37.555 32.712
H 20.113 37.691 31.927
H 19.882 37.533 33.615
H 18.725 36.657 32.584
C 18.683 40.103 32.938
H 19.739 40.132 32.812
H 18.506 40.198 33.985
C 17.876 41.133 32.151
H 17.451 41.886 32.824
H 17.049 40.657 31.733
C 18.658 41.653 30.898
H 18.246 41.244 29.993
H 19.665 41.328 30.771
C 18.825 43.171 30.937
H 18.975 43.491 32.001
C 17.67  43.965 30.161
H 17.83  43.589 29.089
H 16.646 43.746 30.488
H 17.875 45.014 30.242
C 20.178 43.714 30.303
H 20.2   44.787 30.47 
H 21.142 43.338 30.679
H 20.153 43.586 29.16 
