137

Mg 23.016 26.102 39.758
C 20.757 23.416 39.673
C 24.028 25.083 36.629
H 24.429 24.95  35.655
C 25.023 28.791 39.686
H 25.62  29.711 39.741
C 22.148 26.628 42.992
H 21.687 26.878 43.962
N 22.311 24.535 38.269
C 21.405 23.558 38.428
C 21.171 22.692 37.21 
H 21.43  21.625 37.551
C 22.365 23.114 36.348
H 22.044 23.492 35.384
C 22.94  24.328 37.126
C 23.445 21.919 36.127
H 23.797 21.439 37.039
H 23.058 21.122 35.552
H 24.262 22.36  35.541
C 19.741 22.61  36.614
H 19.322 23.583 36.389
H 19.127 22.178 37.38 
C 19.642 21.819 35.272
H 20.491 21.27  35.14 
H 18.802 21.112 35.306
C 19.428 22.622 33.989
O 19.846 23.767 33.834
O 18.596 21.965 33.068
N 24.307 26.82  38.404
C 24.612 26.257 37.201
C 25.574 27.046 36.494
C 25.743 28.181 37.292
C 24.97  28.017 38.498
C 26.12  26.769 35.106
H 25.217 27.077 34.567
H 26.88  27.383 34.718
H 26.371 25.717 34.883
C 26.454 29.386 37.076
H 26.895 29.935 37.921
C 26.638 29.914 35.85 
H 26.208 29.439 34.983
H 27.204 30.875 35.725
N 23.512 27.47  41.143
C 24.264 28.587 40.898
C 24.416 29.391 42.08 
C 23.632 28.74  43.065
C 23.    27.629 42.372
C 25.375 30.58  42.323
H 25.288 31.054 43.299
H 26.445 30.315 42.026
H 25.011 31.439 41.748
C 23.514 29.128 44.541
H 23.36  28.26  45.109
H 24.33  29.751 44.843
C 22.213 30.006 44.777
H 21.295 29.57  44.392
H 22.056 30.048 45.865
H 22.443 30.997 44.37 
N 21.749 25.205 41.107
C 21.557 25.556 42.339
C 20.563 24.602 42.915
C 20.286 23.727 41.916
C 21.031 24.163 40.809
C 19.944 24.812 44.285
H 19.101 24.117 44.293
H 20.6   24.512 45.06 
H 19.6   25.803 44.628
C 19.498 22.55  41.535
O 18.741 21.854 42.221
C 19.766 22.313 40.086
H 18.735 22.334 39.703
C 20.242 20.892 40.007
O 21.318 20.507 40.445
O 19.38  20.168 39.218
C 19.808 18.845 38.895
H 19.004 18.294 38.449
H 20.728 18.857 38.272
H 19.879 18.244 39.769
C 18.297 22.578 31.779
H 18.959 23.324 31.402
H 17.364 23.108 31.879
C 18.182 21.366 30.878
H 18.889 20.572 31.135
C 17.35  21.136 29.868
C 16.376 22.235 29.37 
H 16.399 23.246 29.846
H 16.552 22.363 28.318
H 15.424 21.808 29.523
C 17.357 19.888 28.994
H 18.049 19.196 29.433
H 17.8   20.18  28.033
C 15.974 19.118 28.84 
H 15.241 19.603 29.538
H 16.098 18.058 29.121
C 15.407 19.133 27.41 
H 16.191 19.27  26.739
H 14.73  19.958 27.406
C 14.541 17.845 27.095
H 15.125 16.901 27.189
C 14.067 17.805 25.598
H 13.544 18.669 25.29 
H 14.928 17.724 24.898
H 13.389 16.945 25.418
C 13.334 17.718 28.073
H 13.576 17.867 29.151
H 12.913 16.662 28.043
C 12.136 18.685 27.758
H 12.564 19.321 26.976
H 11.86  19.331 28.613
C 10.898 17.969 27.126
H 10.15 17.58 27.89
H 11.263 17.053 26.512
C 10.081 18.844 26.13 
H 10.793 19.412 25.557
C  9.215 19.955 26.909
H  9.934 20.472 27.5  
H  8.798 20.675 26.154
H  8.357 19.418 27.445
C  9.089 17.99  25.282
H  8.462 18.736 24.739
H  8.447 17.343 25.943
C  9.662 17.044 24.156
H 10.765 17.1   23.91 
H  9.168 17.327 23.168
C  9.394 15.505 24.407
H  8.34  15.381 24.046
H  9.359 15.326 25.492
C 10.193 14.456 23.713
H 10.148 14.644 22.658
C  9.57  13.013 24.127
H  9.288 12.834 25.21 
H  8.74  12.815 23.493
H 10.324 12.278 24.01 
C 11.705 14.626 24.124
H 12.27  13.8   23.797
H 12.155 15.53  23.655
H 11.704 14.701 25.167
