137

Mg 21.969 17.336 26.279
C 23.857 18.305 23.64 
C 24.149 18.713 28.423
H 24.825 19.172 29.1  
C 19.987 16.261 28.87 
H 19.289 15.876 29.625
C 19.734 15.891 24.108
H 19.029 15.353 23.456
N 23.695 18.482 26.08 
C 24.263 18.844 24.879
C 25.352 19.984 24.962
H 26.297 19.715 24.404
C 25.536 19.894 26.55 
H 25.426 20.849 27.025
C 24.428 18.96  27.08 
C 26.893 19.415 27.019
H 27.147 18.409 26.676
H 27.734 20.01  26.644
H 27.041 19.341 28.092
C 24.987 21.432 24.653
H 24.226 21.85  25.279
H 24.744 21.464 23.607
C 26.196 22.45  24.875
H 27.192 21.971 24.944
H 26.201 23.172 24.069
C 26.115 23.423 26.001
O 27.012 23.722 26.827
O 24.916 24.128 25.988
N 22.187 17.233 28.355
C 23.133 17.881 29.045
C 23.018 17.499 30.376
C 21.79  16.804 30.514
C 21.268 16.745 29.215
C 24.024 17.985 31.436
H 24.992 17.95  31.129
H 23.733 18.895 31.958
H 23.864 17.24  32.198
C 21.045 16.345 31.693
H 20.507 15.416 31.517
C 20.85  17.075 32.771
H 21.243 18.099 32.95 
H 20.194 16.697 33.534
N 20.122 16.308 26.455
C 19.451 16.012 27.625
C 18.178 15.287 27.331
C 18.217 15.027 25.969
C 19.402 15.765 25.457
C 17.059 14.722 28.338
H 17.054 15.374 29.132
H 16.149 14.579 27.852
H 17.466 13.793 28.652
C 17.209 14.186 25.147
H 17.76  13.823 24.276
H 16.889 13.311 25.731
C 15.927 14.958 24.845
H 15.383 15.221 25.796
H 16.176 15.874 24.311
H 15.296 14.357 24.159
N 21.775 17.177 24.282
C 20.868 16.496 23.513
C 21.302 16.472 22.202
C 22.471 17.219 22.142
C 22.691 17.599 23.438
C 20.538 15.875 21.062
H 20.467 14.8   21.139
H 19.581 16.263 20.991
H 21.107 16.023 20.182
C 23.498 17.784 21.244
O 23.688 17.695 20.044
C 24.44  18.544 22.225
H 24.405 19.668 22.014
C 25.77  17.999 22.066
O 25.997 16.791 21.898
O 26.717 19.009 22.005
C 28.099 18.487 22.01 
H 28.282 18.109 22.979
H 28.219 17.692 21.16 
H 28.772 19.309 21.92 
C 24.665 25.114 26.985
H 24.865 26.088 26.529
H 25.396 24.99  27.799
C 23.19  25.074 27.482
H 22.982 24.232 28.172
C 22.239 25.957 27.117
C 22.578 27.114 26.155
H 21.898 27.985 26.171
H 23.48  27.484 26.667
H 22.736 26.781 25.124
C 20.809 25.947 27.677
H 20.662 24.983 28.19 
H 20.047 25.966 26.859
C 20.666 27.091 28.638
H 21.637 27.555 28.666
H 20.438 26.702 29.63 
C 19.645 28.147 28.12 
H 18.773 27.951 28.801
H 19.457 28.018 27.023
C 20.042 29.64  28.197
H 21.019 29.741 27.761
C 20.108 30.022 29.691
H 20.475 31.11  29.659
H 19.066 29.993 29.949
H 20.594 29.322 30.462
C 18.945 30.538 27.566
H 19.076 31.574 27.845
H 17.931 30.231 27.754
C 18.996 30.518 25.969
H 18.369 29.761 25.547
H 20.012 30.218 25.783
C 18.75  31.888 25.284
H 19.431 31.981 24.444
H 19.058 32.662 25.887
C 17.245 32.242 24.945
H 16.818 31.479 24.267
C 17.214 33.557 24.143
H 17.512 34.3   24.878
H 17.878 33.51  23.267
H 16.196 33.732 23.829
C 16.265 32.119 26.144
H 16.665 32.541 27.088
H 16.212 30.991 26.327
C 14.821 32.659 25.853
H 14.549 32.453 24.827
H 14.723 33.68  26.047
C 13.824 31.945 26.77 
H 14.198 30.935 26.802
H 12.927 31.937 26.183
C 13.621 32.591 28.095
H 14.653 32.767 28.478
C 12.912 31.579 28.982
H 13.512 30.748 29.085
H 12.697 31.994 30.004
H 12.002 31.187 28.581
C 12.751 33.832 28.09 
H 13.173 34.542 27.446
H 11.814 33.429 27.69 
H 12.648 34.21  29.128
