137

Mg 19.559 19.434 31.129
C 22.796 18.216 31.045
C 20.75  22.371 32.355
H 21.301 23.276 32.606
C 16.518 20.709 30.982
H 15.529 21.113 30.756
C 18.39  16.516 29.687
H 18.056 15.667 29.101
N 21.539 20.229 31.581
C 22.754 19.537 31.455
C 23.944 20.411 31.988
H 24.445 19.996 32.868
C 23.177 21.656 32.574
H 23.531 22.496 31.982
C 21.714 21.377 32.189
C 23.438 21.912 34.117
H 24.515 21.7   34.175
H 23.266 22.952 34.405
H 22.879 21.177 34.724
C 25.06  20.714 30.909
H 24.801 21.603 30.405
H 25.012 20.009 30.069
C 26.569 20.813 31.491
H 26.636 20.285 32.451
H 27.195 20.229 30.793
C 27.245 22.228 31.446
O 28.43  22.457 31.277
O 26.331 23.194 31.785
N 18.717 21.259 31.586
C 19.39  22.345 32.041
C 18.51  23.486 32.096
C 17.206 23.027 31.736
C 17.48  21.606 31.451
C 18.869 24.867 32.581
H 19.838 24.745 32.906
H 18.849 25.615 31.749
H 18.091 25.097 33.336
C 15.914 23.741 31.671
H 15.02  23.107 31.621
C 15.771 25.065 31.377
H 16.568 25.817 31.327
H 14.697 25.438 31.315
N 17.786 18.718 30.553
C 16.636 19.428 30.537
C 15.558 18.604 29.982
C 16.109 17.364 29.614
C 17.488 17.513 29.944
C 14.111 19.036 29.856
H 13.426 18.233 29.975
H 13.944 19.73  30.616
H 13.824 19.507 28.92 
C 15.364 16.188 29.051
H 14.395 16.488 28.633
H 15.877 15.872 28.212
C 15.117 15.021 30.079
H 14.694 14.146 29.589
H 16.069 14.906 30.744
H 14.42  15.34  30.763
N 20.316 17.722 30.577
C 19.756 16.631 29.973
C 20.81  15.622 29.686
C 22.047 16.267 30.08 
C 21.665 17.517 30.621
C 20.602 14.286 29.142
H 20.524 14.321 28.031
H 21.416 13.602 29.408
H 19.716 13.85  29.532
C 23.49  16.095 30.185
O 24.227 15.188 29.893
C 24.045 17.336 30.949
H 24.807 17.797 30.386
C 24.532 16.938 32.266
O 23.905 16.889 33.316
O 25.88  16.738 32.256
C 26.421 16.43  33.524
H 27.453 16.188 33.414
H 26.309 17.319 34.115
H 25.869 15.589 33.964
C 26.826 24.586 31.928
H 27.199 24.814 30.954
H 27.658 24.744 32.594
C 25.653 25.48  32.281
H 25.386 25.406 33.303
C 24.94  26.43  31.577
C 25.344 26.842 30.162
H 26.388 26.594 29.884
H 24.711 26.45  29.328
H 25.293 27.964 30.14 
C 23.708 27.072 32.102
H 23.173 26.535 32.941
H 23.103 26.875 31.206
C 23.818 28.612 32.397
H 24.791 28.979 32.592
H 23.228 28.754 33.289
C 23.278 29.444 31.235
H 22.702 28.809 30.481
H 24.164 29.861 30.698
C 22.243 30.628 31.477
H 22.681 31.447 32.027
C 20.877 30.298 32.121
H 20.3   29.627 31.481
H 21.123 29.754 33.038
H 20.333 31.161 32.347
C 21.832 31.319 30.114
H 20.968 32.033 30.273
H 21.529 30.506 29.485
C 23.04  31.956 29.371
H 23.223 31.346 28.482
H 24.023 31.917 29.858
C 22.595 33.348 28.899
H 21.534 33.573 28.874
H 22.907 33.477 27.842
C 23.233 34.581 29.614
H 24.265 34.655 29.281
C 23.392 34.286 31.136
H 22.368 34.175 31.55 
H 23.977 33.379 31.343
H 23.833 35.159 31.525
C 22.585 35.964 29.323
H 21.821 36.153 30.063
H 22.141 35.773 28.312
C 23.459 37.236 29.383
H 23.451 37.656 28.391
H 24.512 36.896 29.626
C 23.089 38.313 30.493
H 23.88  38.174 31.267
H 22.164 38.016 31.045
C 22.918 39.818 29.985
H 23.894 40.227 29.431
C 22.625 40.82  31.162
H 22.815 41.806 30.723
H 21.512 40.738 31.468
H 23.239 40.75  32.058
C 21.723 39.883 29.035
H 20.799 39.336 29.419
H 21.373 40.903 29.005
H 21.885 39.468 28.027
