137

Mg 19.458 25.004 28.259
C 22.891 24.578 28.78 
C 19.623 27.66  30.512
H 19.553 28.45  31.338
C 16.101 25.549 27.835
H 15.084 25.765 27.669
C 19.467 22.416 25.931
H 19.582 21.606 25.162
N 21.14  26.089 29.403
C 22.442 25.688 29.511
C 23.264 26.57  30.453
H 23.772 26.074 31.197
C 22.167 27.528 31.069
H 22.396 28.529 30.884
C 20.877 27.067 30.294
C 22.079 27.583 32.598
H 23.148 27.612 32.872
H 21.491 28.46  32.906
H 21.519 26.752 33.041
C 24.363 27.33  29.685
H 23.749 27.969 28.89 
H 25.073 26.662 29.199
C 25.172 28.216 30.522
H 24.666 28.419 31.451
H 26.052 27.628 30.771
C 25.662 29.522 30.002
O 26.52  29.541 29.089
O 25.    30.622 30.435
N 18.173 26.301 28.938
C 18.389 27.337 29.91 
C 17.192 28.21  30.035
C 16.183 27.57  29.262
C 16.802 26.407 28.703
C 17.168 29.559 30.667
H 17.728 30.272 30.071
H 16.21  29.973 30.66 
H 17.541 29.415 31.673
C 14.764 28.077 29.011
H 14.174 28.341 29.849
C 14.138 28.136 27.779
H 14.546 27.829 26.774
H 13.143 28.595 27.792
N 17.972 24.112 27.082
C 16.655 24.461 27.089
C 15.909 23.575 26.228
C 16.909 22.776 25.618
C 18.189 23.085 26.195
C 14.471 23.529 26.094
H 14.094 22.762 25.4  
H 14.089 23.129 27.072
H 14.089 24.507 25.804
C 16.595 21.714 24.476
H 17.13  20.818 24.813
H 15.543 21.485 24.516
C 17.084 22.039 23.066
H 16.766 23.026 22.784
H 18.204 22.005 23.083
H 16.73  21.384 22.294
N 20.742 23.672 27.59 
C 20.684 22.707 26.615
C 21.991 22.09  26.39 
C 22.866 22.722 27.274
C 22.063 23.735 27.937
C 22.355 21.055 25.446
H 22.115 20.061 25.884
H 21.931 21.206 24.459
H 23.349 21.068 25.165
C 24.243 22.757 27.791
O 25.235 22.123 27.443
C 24.321 24.03  28.753
H 24.947 24.661 28.176
C 24.924 23.538 30.   
O 24.323 22.821 30.837
O 26.119 24.193 30.212
C 26.571 24.053 31.602
H 25.747 24.373 32.275
H 26.824 23.046 31.871
H 27.391 24.674 31.878
C 25.668 31.86  30.194
H 26.739 31.75  30.034
H 25.553 32.265 31.158
C 25.068 32.764 29.135
H 24.731 32.26  28.221
C 24.745 34.062 29.316
C 24.986 34.931 30.572
H 25.441 35.847 30.242
H 24.013 35.096 31.1  
H 25.675 34.458 31.297
C 24.026 34.769 28.148
H 23.886 34.131 27.313
H 24.712 35.524 27.817
C 22.617 35.294 28.476
H 22.373 34.881 29.442
H 21.92  34.977 27.7  
C 22.449 36.788 28.52 
H 21.861 37.046 27.636
H 23.441 37.292 28.521
C 21.527 37.332 29.692
H 22.04  37.087 30.625
C 20.116 36.747 29.586
H 19.724 36.868 28.564
H 20.018 35.676 29.881
H 19.278 37.32  30.081
C 21.422 38.821 29.619
H 20.515 39.132 30.117
H 21.431 39.177 28.628
C 22.627 39.552 30.219
H 23.491 39.141 29.76 
H 22.751 39.5   31.356
C 22.535 41.049 29.981
H 22.458 41.496 30.989
H 21.664 41.355 29.394
C 23.702 41.838 29.169
H 24.592 41.639 29.652
C 23.329 43.361 29.086
H 22.285 43.541 28.698
H 23.512 43.832 30.076
H 23.954 43.826 28.348
C 23.835 41.227 27.721
H 22.954 41.638 27.207
H 23.467 40.216 27.691
C 25.124 41.464 26.904
H 25.466 40.462 26.557
H 25.834 41.931 27.674
C 25.079 42.647 25.87 
H 25.768 43.492 26.152
H 24.007 42.978 25.875
C 25.36  42.343 24.36 
H 24.613 41.602 24.033
C 26.744 41.697 23.958
H 26.915 40.714 24.44 
H 26.638 41.476 22.887
H 27.569 42.382 24.049
C 25.174 43.638 23.56 
H 26.114 44.222 23.748
H 24.994 43.433 22.516
H 24.373 44.264 24.017
