137

Mg 19.607 19.248 22.03 
C 22.678 20.488 21.271
C 19.739 21.145 24.855
H 19.828 21.646 25.837
C 16.473 18.384 22.682
H 15.478 18.136 23.004
C 19.524 17.616 19.039
H 19.527 17.081 18.074
N 20.981 20.709 22.933
C 22.146 21.04  22.464
C 22.866 22.106 23.33 
H 23.931 21.947 23.437
C 22.07  22.051 24.646
H 21.772 23.033 24.869
C 20.856 21.289 24.087
C 22.842 21.403 25.77 
H 23.696 21.989 25.805
H 22.14  21.362 26.652
H 23.099 20.373 25.472
C 22.811 23.465 22.526
H 21.754 23.6   22.148
H 23.525 23.533 21.807
C 23.109 24.792 23.342
H 22.155 25.255 23.519
H 23.705 24.656 24.224
C 23.971 25.865 22.727
O 24.858 25.765 21.846
O 23.697 27.003 23.364
N 18.306 19.636 23.518
C 18.555 20.399 24.673
C 17.459 20.334 25.653
C 16.526 19.506 25.013
C 17.07  19.163 23.643
C 17.375 21.136 26.972
H 16.466 21.554 27.257
H 17.748 20.508 27.764
H 18.07  22.032 26.941
C 15.189 19.143 25.495
H 14.391 18.771 24.911
C 14.892 19.246 26.844
H 15.639 19.547 27.618
H 13.853 19.147 27.09 
N 18.177 18.209 21.011
C 16.998 17.96  21.495
C 16.269 17.112 20.483
C 17.176 16.872 19.484
C 18.337 17.588 19.839
C 14.891 16.673 20.568
H 14.189 17.348 21.077
H 14.44  16.359 19.629
H 14.915 15.755 21.154
C 16.871 16.002 18.238
H 17.603 15.218 18.08 
H 15.959 15.465 18.466
C 16.758 16.795 17.01 
H 16.481 16.111 16.234
H 16.074 17.626 17.049
H 17.721 17.158 16.654
N 20.736 19.082 20.421
C 20.653 18.275 19.322
C 21.902 18.409 18.495
C 22.716 19.19  19.31 
C 22.024 19.584 20.438
C 22.189 17.748 17.148
H 22.467 16.683 17.239
H 21.247 17.81  16.575
H 22.872 18.408 16.654
C 24.016 19.811 19.285
O 24.941 19.768 18.448
C 24.03  20.685 20.624
H 24.2   21.715 20.257
C 25.171 20.13  21.432
O 25.097 19.133 22.152
O 26.224 21.    21.227
C 27.475 20.826 21.971
H 27.879 19.766 21.778
H 28.215 21.505 21.679
H 27.162 20.924 22.991
C 24.651 28.062 23.201
H 24.43  28.492 22.198
H 25.656 27.612 23.265
C 24.491 29.163 24.252
H 23.473 29.321 24.505
C 25.528 29.846 24.767
C 26.964 29.635 24.505
H 27.158 29.986 23.505
H 27.571 30.04  25.227
H 27.277 28.575 24.509
C 25.137 30.97  25.746
H 25.704 30.907 26.665
H 24.104 30.889 26.07 
C 25.33  32.425 25.28 
H 25.977 32.446 24.384
H 25.901 33.009 26.059
C 24.086 33.097 24.822
H 23.149 32.647 25.121
H 24.121 33.04  23.72 
C 24.079 34.632 25.167
H 24.985 35.006 24.795
C 23.835 34.969 26.71 
H 22.953 34.555 27.116
H 24.722 34.617 27.217
H 23.902 36.029 26.955
C 22.999 35.552 24.473
H 23.164 36.577 24.858
H 21.997 35.262 24.807
C 22.944 35.476 22.936
H 22.017 35.005 22.602
H 23.825 34.879 22.592
C 23.085 36.937 22.37 
H 23.881 36.861 21.608
H 23.542 37.636 23.033
C 21.869 37.544 21.65 
H 21.563 36.813 20.895
C 22.168 38.845 20.803
H 21.44  38.871 19.971
H 22.241 39.81  21.35 
H 23.101 38.817 20.214
C 20.581 37.659 22.523
H 20.763 38.509 23.183
H 20.483 36.766 23.139
C 19.294 37.722 21.786
H 18.809 36.714 21.891
H 19.455 37.826 20.675
C 18.349 38.86  22.285
H 18.892 39.67  22.824
H 17.58  38.462 22.933
C 17.609 39.604 21.176
H 18.242 40.244 20.568
C 16.672 40.598 21.82 
H 17.194 41.377 22.391
H 16.058 41.09  21.138
H 15.883 40.166 22.34 
C 16.792 38.832 20.172
H 17.391 38.127 19.6  
H 16.009 38.268 20.684
H 16.339 39.613 19.472
