137

Mg 29.895 28.856 32.607
C 27.836 26.275 31.538
C 31.54  28.564 29.542
H 32.114 28.666 28.624
C 32.229 31.129 33.653
H 33.027 31.813 34.001
C 28.587 28.645 35.777
H 28.042 28.642 36.707
N 29.637 27.706 30.787
C 28.665 26.747 30.565
C 28.66  26.203 29.081
H 28.722 25.115 29.16 
C 29.942 26.777 28.543
H 29.873 27.391 27.642
C 30.438 27.774 29.669
C 30.96  25.645 28.42 
H 31.037 25.122 29.452
H 30.617 24.904 27.686
H 32.028 25.881 28.3  
C 27.337 26.679 28.378
H 27.382 27.767 28.171
H 26.658 26.453 29.127
C 27.131 25.865 27.016
H 27.185 26.519 26.067
H 27.85  24.997 26.972
C 25.819 25.273 26.766
O 25.357 25.096 25.621
O 25.187 24.789 27.854
N 31.527 29.856 31.64 
C 32.015 29.58  30.417
C 33.254 30.333 30.239
C 33.456 31.037 31.422
C 32.381 30.662 32.305
C 33.967 30.507 28.872
H 34.755 31.292 28.976
H 34.523 29.558 28.54 
H 33.314 30.909 28.159
C 34.452 31.995 31.84 
H 34.146 32.807 32.491
C 35.778 31.835 31.592
H 35.965 31.061 30.85 
H 36.566 32.5   32.013
N 30.259 29.756 34.351
C 31.253 30.678 34.545
C 31.205 31.154 35.932
C 30.067 30.51  36.524
C 29.596 29.6   35.514
C 32.05  32.17  36.619
H 32.831 32.669 36.001
H 31.435 32.889 37.115
H 32.551 31.765 37.549
C 29.529 30.833 37.957
H 29.502 29.966 38.555
H 30.151 31.596 38.386
C 28.118 31.497 37.971
H 27.872 31.743 39.013
H 28.213 32.354 37.357
H 27.357 30.807 37.646
N 28.666 27.796 33.527
C 28.199 27.729 34.821
C 27.316 26.666 35.013
C 27.142 26.079 33.735
C 27.922 26.798 32.868
C 26.595 26.284 36.294
H 27.295 25.914 37.089
H 26.122 27.201 36.65 
H 25.879 25.461 36.083
C 26.439 24.973 33.017
O 25.658 24.092 33.376
C 26.789 25.202 31.501
H 25.886 25.408 31.025
C 27.277 23.889 30.931
O 28.246 23.288 31.335
O 26.56  23.58  29.832
C 26.982 22.369 29.061
H 26.306 22.38  28.208
H 28.046 22.453 28.732
H 26.861 21.43  29.624
C 24.048 23.979 27.46 
H 24.384 23.112 26.867
H 23.396 24.623 26.856
C 23.257 23.714 28.748
H 22.819 24.631 29.203
C 22.996 22.554 29.335
C 23.184 21.144 28.819
H 23.108 21.195 27.709
H 24.148 20.737 29.137
H 22.442 20.41  29.146
C 22.314 22.493 30.699
H 22.676 23.241 31.388
H 22.73  21.582 31.179
C 20.798 22.194 30.708
H 20.477 22.323 31.719
H 20.671 21.197 30.514
C 19.891 23.185 29.893
H 20.496 24.117 29.702
H 18.936 23.345 30.408
C 19.534 22.628 28.52 
H 20.42  22.38  27.991
C 19.02  23.813 27.614
H 18.013 24.06  28.047
H 19.706 24.695 27.605
H 18.952 23.448 26.555
C 18.696 21.31  28.461
H 19.359 20.509 28.817
H 18.572 21.179 27.35 
C 17.325 21.295 29.152
H 16.685 21.067 28.332
H 17.018 22.257 29.438
C 17.091 20.311 30.31 
H 18.17  20.168 30.654
H 16.519 19.391 30.108
C 16.401 20.97  31.532
H 16.857 21.963 31.564
C 16.757 20.381 32.937
H 16.085 20.81  33.643
H 16.432 19.314 32.915
H 17.74  20.536 33.278
C 14.878 21.058 31.148
H 14.45  20.021 31.112
H 14.865 21.396 30.138
C 13.978 22.007 31.915
H 13.573 22.767 31.258
H 14.617 22.725 32.574
C 12.956 21.385 32.838
H 13.238 21.711 33.846
H 12.991 20.348 32.831
C 11.533 21.857 32.681
H 11.367 22.895 32.961
C 10.702 21.139 33.714
H 10.732 20.091 33.473
H 10.986 21.19  34.753
H  9.712 21.403 33.599
C 11.003 21.538 31.276
H 11.251 20.507 31.06 
H  9.963 21.69  31.067
H 11.656 22.202 30.579
