137

Mg 36.307 33.093 35.406
C 33.516 31.439 33.996
C 38.196 32.078 32.589
H 38.846 31.799 31.698
C 39.144 34.142 36.879
H 39.981 34.528 37.456
C 34.44  33.82  38.118
H 33.877 33.974 38.994
N 35.922 31.923 33.552
C 34.715 31.399 33.187
C 34.769 30.752 31.747
H 34.42  29.728 31.712
C 36.275 30.861 31.398
H 36.41  31.468 30.528
C 36.854 31.599 32.596
C 37.002 29.53  31.186
H 38.028 29.736 30.959
H 37.06  28.958 32.163
H 36.517 28.953 30.435
C 33.856 31.468 30.657
H 34.008 32.526 30.667
H 32.837 31.412 30.964
C 33.889 30.884 29.221
H 34.264 31.665 28.544
H 34.621 30.081 29.152
C 32.617 30.286 28.657
O 32.241 29.169 28.847
O 31.831 31.197 28.079
N 38.262 33.145 34.826
C 38.866 32.731 33.644
C 40.276 33.059 33.636
C 40.631 33.623 34.875
C 39.312 33.651 35.58 
C 41.12  32.83  32.359
H 41.978 33.411 32.368
H 41.44  31.828 32.233
H 40.642 33.266 31.476
C 41.921 34.118 35.517
H 41.8   34.702 36.46 
C 43.176 33.69  35.088
H 43.321 33.053 34.204
H 43.979 33.923 35.775
N 36.715 33.836 37.211
C 37.952 34.315 37.605
C 37.894 34.923 38.994
C 36.481 34.892 39.244
C 35.803 34.215 38.146
C 39.041 35.6   39.788
H 39.454 36.339 39.183
H 38.739 36.036 40.743
H 39.756 34.809 40.029
C 35.773 35.554 40.426
H 35.3   34.795 41.12 
H 36.467 36.255 40.929
C 34.699 36.604 40.027
H 34.425 37.12  40.925
H 35.08  37.289 39.33 
H 33.799 36.009 39.758
N 34.375 32.808 36.001
C 33.735 33.19  37.154
C 32.333 32.792 37.043
C 32.234 32.01  35.869
C 33.494 32.085 35.223
C 31.167 33.046 37.942
H 31.425 33.332 39.003
H 30.646 33.882 37.488
H 30.56  32.168 37.936
C 31.352 31.166 35.028
O 30.205 30.795 35.221
C 32.122 30.831 33.804
H 31.601 31.324 32.978
C 32.098 29.384 33.738
O 32.848 28.572 34.231
O 31.047 29.054 32.977
C 30.816 27.578 32.736
H 30.491 27.544 31.726
H 31.7   26.931 32.758
H 30.171 27.09  33.531
C 30.42  30.838 28.137
H 30.085 30.731 29.127
H 30.188 29.898 27.656
C 29.705 32.064 27.49 
H 30.023 32.462 26.489
C 28.778 32.92  28.059
C 28.226 32.757 29.487
H 28.366 33.628 30.113
H 27.203 32.529 29.412
H 28.564 31.901 30.012
C 28.284 34.242 27.341
H 29.102 34.475 26.699
H 28.192 35.061 28.042
C 27.066 33.929 26.442
H 27.036 32.837 26.217
H 27.233 34.446 25.489
C 25.743 34.457 27.129
H 25.458 35.191 26.414
H 26.09  34.948 28.077
C 24.547 33.612 27.316
H 24.967 32.703 27.714
C 23.721 33.29  26.001
H 23.237 34.195 25.55 
H 24.394 32.811 25.281
H 22.955 32.537 26.218
C 23.701 34.358 28.401
H 23.311 35.341 28.097
H 24.385 34.543 29.236
C 22.605 33.41  28.873
H 22.858 33.079 29.865
H 22.469 32.511 28.316
C 21.169 34.    29.098
H 20.535 33.182 28.668
H 21.169 34.938 28.46 
C 20.862 34.292 30.569
H 21.711 34.952 30.888
C 20.794 32.992 31.486
H 20.173 33.043 32.359
H 20.315 32.17  30.972
H 21.77  32.632 31.851
C 19.451 34.994 30.576
H 18.827 34.115 30.427
H 19.505 35.763 29.85 
C 19.025 35.647 31.904
H 18.906 36.675 31.807
H 19.835 35.561 32.614
C 17.761 34.916 32.468
H 18.076 33.991 32.852
H 17.084 34.755 31.653
C 16.935 35.709 33.469
H 16.472 36.525 33.011
C 17.789 36.32  34.686
H 17.058 36.678 35.428
H 18.286 35.526 35.255
H 18.519 37.071 34.44 
C 15.756 34.814 34.036
H 15.177 35.343 34.851
H 15.008 34.681 33.364
H 16.165 33.868 34.414
