137

Mg 21.535 28.229 31.579
C 22.737 25.184 32.655
C 18.873 27.923 33.853
H 18.13  27.798 34.593
C 20.048 30.877 30.198
H 19.71  31.87  29.771
C 24.008 28.397 29.177
H 24.874 28.422 28.541
N 20.984 26.796 33.197
C 21.68  25.681 33.464
C 21.06  24.831 34.621
H 20.901 23.776 34.333
C 19.742 25.646 34.834
H 19.72  25.936 35.841
C 19.844 26.892 33.923
C 18.534 24.732 34.449
H 18.607 24.411 33.415
H 18.552 23.844 35.048
H 17.646 25.296 34.618
C 22.077 24.903 35.827
H 22.075 25.952 36.305
H 23.063 24.626 35.42 
C 21.73  23.956 36.986
H 20.89  23.255 36.727
H 22.613 23.33  37.143
C 21.49  24.529 38.311
O 22.231 24.452 39.279
O 20.296 25.185 38.139
N 19.791 29.22  31.965
C 18.853 29.    32.945
C 17.738 29.972 32.822
C 18.126 30.827 31.756
C 19.343 30.325 31.274
C 16.526 30.016 33.705
H 15.582 30.163 33.152
H 16.587 29.002 34.151
H 16.687 30.735 34.554
C 17.451 31.931 31.168
H 17.795 32.249 30.126
C 16.48  32.661 31.728
H 16.021 32.387 32.712
H 16.026 33.521 31.193
N 21.937 29.397 30.076
C 21.254 30.489 29.644
C 21.895 31.205 28.55 
C 23.117 30.603 28.372
C 23.057 29.429 29.234
C 21.434 32.48  27.903
H 20.468 32.42  27.398
H 21.328 33.242 28.629
H 22.158 32.82  27.24 
C 24.163 30.996 27.366
H 24.087 30.41  26.457
H 23.923 31.971 26.911
C 25.513 31.28  27.955
H 26.166 31.63  27.124
H 25.462 32.083 28.625
H 26.054 30.414 28.339
N 23.012 27.098 30.947
C 23.948 27.244 29.955
C 24.789 26.003 29.883
C 24.251 25.158 30.917
C 23.237 25.873 31.542
C 25.902 25.706 28.915
H 26.821 26.05  29.389
H 26.027 24.752 28.394
H 25.704 26.318 28.045
C 24.468 23.915 31.514
O 25.307 23.053 31.287
C 23.553 23.908 32.765
H 24.279 24.057 33.568
C 22.757 22.741 32.884
O 21.68  22.478 32.229
O 23.168 21.979 33.997
C 22.338 20.805 34.257
H 22.245 20.046 33.453
H 22.714 20.306 35.152
H 21.416 21.291 34.474
C 19.905 25.774 39.443
H 20.58  26.533 39.717
H 19.769 25.057 40.24 
C 18.52  26.42  39.039
H 17.559 26.023 39.417
C 18.491 27.51  38.195
C 19.657 28.237 37.55 
H 19.58  29.267 37.923
H 20.635 27.734 37.665
H 19.519 28.302 36.481
C 17.142 28.056 37.945
H 16.482 27.388 38.341
H 17.075 28.227 36.847
C 16.851 29.361 38.719
H 17.707 29.733 39.316
H 16.025 29.217 39.416
C 16.405 30.477 37.82 
H 15.332 30.453 37.597
H 16.805 30.294 36.869
C 16.694 31.944 38.268
H 17.78  32.112 38.583
C 15.902 32.321 39.465
H 14.86  32.246 39.247
H 16.225 31.621 40.227
H 16.213 33.298 39.803
C 16.542 32.837 37.01 
H 15.457 32.767 36.738
H 17.084 32.487 36.161
C 16.82  34.346 37.334
H 17.52  34.49  38.149
H 15.877 34.78  37.638
C 17.423 35.224 36.22 
H 17.612 34.65  35.391
H 18.335 35.693 36.526
C 16.385 36.307 35.735
H 16.18  37.069 36.559
C 14.995 35.702 35.288
H 14.261 36.507 35.252
H 15.078 35.19  34.279
H 14.734 34.946 36.003
C 16.952 37.025 34.493
H 16.13  37.601 34.252
H 17.127 36.422 33.627
C 18.133 37.936 34.887
H 18.89  38.071 34.104
H 18.75  37.578 35.718
C 17.659 39.398 35.265
H 17.926 39.578 36.34 
H 16.588 39.47  35.115
C 18.417 40.518 34.58 
H 19.498 40.661 34.665
C 18.068 41.88  35.125
H 18.109 41.895 36.215
H 18.684 42.607 34.585
H 17.023 42.161 34.94 
C 18.066 40.557 33.064
H 17.14  40.038 32.868
H 18.042 41.591 32.63 
H 18.769 39.942 32.508
