137

Mg 23.504 26.801 40.023
C 20.419 25.504 40.734
C 23.652 24.844 37.143
H 23.632 24.273 36.219
C 26.129 28.656 38.913
H 26.916 29.359 38.521
C 23.294 28.761 42.921
H 23.176 29.255 43.844
N 22.237 25.349 39.094
C 20.944 25.09  39.47 
C 20.23  24.057 38.5  
H 19.979 23.118 39.019
C 21.344 23.735 37.423
H 20.814 24.025 36.516
C 22.467 24.734 37.867
C 21.86  22.244 37.294
H 22.476 22.082 38.143
H 21.148 21.417 37.333
H 22.522 22.095 36.371
C 18.781 24.621 37.991
H 18.926 25.671 37.752
H 18.184 24.46  38.788
C 18.15  23.982 36.754
H 18.531 22.978 36.701
H 17.04  23.897 36.763
C 18.565 24.543 35.363
O 19.042 25.599 35.179
O 18.431 23.582 34.38 
N 24.783 26.644 38.424
C 24.766 25.679 37.386
C 26.006 25.828 36.571
C 26.607 27.037 36.917
C 25.813 27.508 38.106
C 26.455 24.807 35.551
H 25.932 23.856 35.857
H 26.184 24.986 34.534
H 27.5   24.665 35.498
C 27.833 27.742 36.338
H 28.41  28.276 37.02 
C 28.335 27.707 35.088
H 27.696 27.155 34.413
H 29.12  28.362 34.691
N 24.559 28.298 40.79 
C 25.516 29.03  40.116
C 25.982 30.211 40.947
C 25.179 30.158 42.117
C 24.356 28.979 41.948
C 27.007 31.194 40.512
H 27.982 30.702 40.612
H 27.03  31.438 39.452
H 27.057 32.102 41.176
C 25.216 31.083 43.294
H 24.981 30.505 44.205
H 26.215 31.577 43.478
C 24.204 32.166 43.199
H 24.316 32.59  42.206
H 23.18  31.762 43.311
H 24.378 32.921 43.921
N 22.161 27.159 41.457
C 22.227 27.826 42.675
C 21.093 27.472 43.537
C 20.383 26.572 42.734
C 21.062 26.413 41.541
C 20.94  28.001 44.856
H 20.051 27.525 45.215
H 21.757 27.703 45.395
H 20.752 29.04  44.88 
C 19.197 25.779 42.793
O 18.21  25.771 43.56 
C 19.241 24.992 41.529
H 18.288 25.147 41.062
C 19.477 23.59  41.944
O 20.478 23.178 42.564
O 18.465 22.885 41.453
C 18.536 21.431 41.813
H 18.746 21.324 42.853
H 17.654 20.864 41.601
H 19.5   20.991 41.378
C 19.118 23.979 33.132
H 20.149 24.365 33.327
H 18.502 24.759 32.64 
C 19.304 22.777 32.215
H 20.109 22.184 32.622
C 18.707 22.568 30.981
C 17.662 23.572 30.379
H 18.071 24.152 29.519
H 16.79  23.04  30.148
H 17.293 24.304 31.019
C 19.099 21.31  30.232
H 19.897 20.917 30.928
H 19.509 21.646 29.252
C 18.052 20.279 29.857
H 17.089 20.785 30.021
H 18.179 19.346 30.351
C 17.885 19.884 28.384
H 18.569 20.453 27.792
H 16.849 20.158 28.019
C 18.196 18.364 28.082
H 19.149 18.065 28.515
C 18.442 18.094 26.607
H 17.592 18.407 26.006
H 19.414 18.665 26.336
H 18.529 17.088 26.398
C 17.062 17.335 28.478
H 17.04  17.46  29.579
H 17.415 16.391 28.169
C 15.581 17.508 28.028
H 15.6   18.436 27.412
H 14.938 17.777 28.768
C 14.986 16.246 27.423
H 14.378 15.774 28.198
H 15.862 15.573 27.22 
C 14.248 16.399 26.063
H 14.675 17.154 25.377
C 12.85  16.963 26.257
H 12.284 17.008 25.327
H 12.317 16.394 26.997
H 12.974 17.997 26.555
C 14.26  15.052 25.321
H 13.538 15.137 24.522
H 13.948 14.207 25.985
C 15.644 14.68  24.756
H 16.013 13.699 25.175
H 16.4   15.357 25.196
C 15.732 14.7   23.269
H 15.935 15.758 22.951
H 14.768 14.312 22.847
C 17.001 14.013 22.662
H 17.854 14.498 23.101
C 17.217 14.388 21.146
H 16.477 14.039 20.482
H 17.11  15.517 21.159
H 18.141 14.137 20.829
C 17.071 12.455 22.805
H 16.301 12.114 22.097
H 18.032 12.103 22.358
H 17.004 12.194 23.831
