137

Mg 35.629 35.493 34.606
C 32.833 34.551 32.75 
C 36.763 32.323 34.318
H 37.124 31.361 34.018
C 38.306 36.192 36.565
H 39.173 36.551 37.15 
C 34.145 38.446 35.379
H 33.755 39.507 35.57 
N 34.958 33.719 33.546
C 33.779 33.526 32.832
C 33.634 32.129 32.244
H 32.637 31.863 32.51 
C 34.852 31.37  32.873
H 35.461 31.009 32.148
C 35.558 32.559 33.639
C 34.42  30.225 33.722
H 33.853 30.486 34.616
H 33.883 29.613 33.066
H 35.346 29.681 33.99 
C 33.722 32.155 30.691
H 34.65  32.482 30.253
H 32.839 32.771 30.403
C 33.508 30.795 30.085
H 34.424 30.351 29.804
H 32.962 30.14  30.767
C 32.63  30.783 28.817
O 33.012 30.465 27.693
O 31.301 31.002 29.146
N 37.401 34.458 35.236
C 37.667 33.146 35.019
C 39.076 32.865 35.466
C 39.46  33.948 36.231
C 38.349 34.915 36.059
C 39.786 31.605 35.184
H 40.694 31.398 35.732
H 38.989 30.812 35.397
H 40.018 31.603 34.086
C 40.764 34.117 37.012
H 40.718 34.735 37.943
C 41.981 33.617 36.722
H 42.163 32.969 35.835
H 42.859 33.7   37.385
N 36.117 36.998 35.809
C 37.289 37.147 36.493
C 37.279 38.405 37.189
C 36.055 39.061 36.918
C 35.374 38.157 35.999
C 38.425 38.945 38.022
H 38.231 40.018 38.296
H 38.555 38.38  38.955
H 39.296 38.96  37.34 
C 35.624 40.383 37.571
H 34.497 40.486 37.704
H 35.901 40.396 38.6  
C 36.201 41.707 36.94 
H 35.747 41.788 35.939
H 36.024 42.632 37.49 
H 37.237 41.567 36.81 
N 33.875 36.368 34.219
C 33.407 37.617 34.533
C 32.125 37.838 33.859
C 31.855 36.645 33.168
C 32.941 35.778 33.468
C 31.243 39.131 33.959
H 30.174 38.973 33.82 
H 31.377 39.756 34.851
H 31.536 39.838 33.242
C 30.892 35.946 32.313
O 29.831 36.364 31.791
C 31.408 34.455 32.193
H 31.44  34.188 31.119
C 30.631 33.603 33.075
O 30.076 33.946 34.09 
O 30.341 32.45  32.395
C 29.292 31.659 33.057
H 29.596 31.319 34.029
H 28.481 32.321 33.144
H 29.052 30.76  32.493
C 30.456 30.546 28.047
H 30.67  29.489 27.852
H 30.775 31.067 27.117
C 29.002 30.759 28.436
H 28.643 31.791 28.439
C 28.158 29.808 28.815
C 28.442 28.324 28.924
H 27.772 27.598 28.427
H 29.509 28.096 28.7  
H 28.305 28.096 29.993
C 26.776 30.118 29.373
H 26.837 31.177 29.51 
H 26.825 29.686 30.41 
C 25.423 29.767 28.592
H 25.688 29.036 27.828
H 25.168 30.731 28.167
C 24.249 29.34  29.459
H 23.517 30.039 29.251
H 24.486 29.333 30.54 
C 23.749 27.991 29.091
H 24.588 27.318 29.171
C 23.068 27.805 27.671
H 22.446 26.933 27.478
H 22.308 28.599 27.585
H 23.891 27.879 26.923
C 22.668 27.492 30.152
H 23.188 27.464 31.085
H 22.352 26.401 29.978
C 21.396 28.315 30.2  
H 20.584 27.644 29.813
H 21.5   29.147 29.5  
C 21.193 28.926 31.597
H 20.796 29.929 31.443
H 22.084 28.937 32.221
C 19.971 28.32  32.407
H 20.085 27.218 32.443
C 18.561 28.651 31.798
H 17.953 27.856 32.241
H 18.32  29.648 32.122
H 18.613 28.562 30.741
C 20.022 28.649 33.916
H 19.291 27.993 34.318
H 19.667 29.715 34.182
C 21.33  28.32  34.721
H 22.052 29.139 34.519
H 21.754 27.367 34.451
C 21.008 28.356 36.234
H 20.031 28.    36.521
H 21.132 29.442 36.461
C 21.932 27.513 37.257
H 22.915 27.851 37.085
C 21.952 25.967 37.019
H 22.393 25.56  37.908
H 20.875 25.757 36.941
H 22.367 25.652 36.084
C 21.694 28.056 38.631
H 20.657 28.035 38.923
H 22.088 27.408 39.421
H 22.162 29.028 38.695
