137

Mg 31.315 31.006 34.787
C 30.335 28.444 32.929
C 34.126 31.324 32.962
H 35.043 31.285 32.282
C 32.509 33.405 36.932
H 32.774 34.276 37.489
C 28.741 30.303 37.139
H 27.929 30.053 37.787
N 32.018 30.142 33.027
C 31.399 29.127 32.37 
C 32.14  28.636 31.094
H 32.563 27.602 31.211
C 33.473 29.425 31.27 
H 33.654 30.036 30.415
C 33.227 30.352 32.514
C 34.667 28.36  31.35 
H 34.623 27.582 32.12 
H 34.837 27.75  30.477
H 35.598 28.898 31.61 
C 31.331 28.875 29.806
H 31.326 30.026 29.699
H 30.281 28.706 30.02 
C 31.825 28.099 28.592
H 32.409 28.779 27.975
H 32.431 27.244 28.748
C 30.733 27.484 27.754
O 30.502 27.885 26.619
O 29.988 26.616 28.495
N 32.966 32.341 34.831
C 34.055 32.248 33.985
C 35.01  33.233 34.358
C 34.507 33.892 35.525
C 33.309 33.175 35.827
C 36.299 33.314 33.725
H 36.933 32.46  34.101
H 36.243 33.273 32.635
H 36.693 34.255 34.11 
C 35.086 34.923 36.432
H 34.85  34.647 37.482
C 35.746 36.061 36.09 
H 35.905 36.234 35.041
H 36.239 36.719 36.816
N 30.725 31.701 36.726
C 31.359 32.765 37.393
C 30.64  33.072 38.692
C 29.607 32.134 38.807
C 29.625 31.358 37.509
C 31.005 34.045 39.806
H 30.83  33.816 40.869
H 32.068 34.181 39.741
H 30.524 35.019 39.615
C 28.58  31.939 39.822
H 28.434 30.883 39.851
H 28.927 32.332 40.752
C 27.216 32.568 39.523
H 26.441 31.983 40.05 
H 27.244 33.609 39.786
H 27.124 32.501 38.44 
N 29.822 29.67  35.024
C 28.831 29.514 35.961
C 28.004 28.397 35.579
C 28.65  27.866 34.476
C 29.701 28.693 34.191
C 26.751 27.913 36.278
H 25.961 28.147 35.516
H 26.876 26.89  36.563
H 26.605 28.431 37.217
C 28.562 26.859 33.452
O 27.759 25.994 33.275
C 29.698 27.198 32.442
H 29.168 27.353 31.476
C 30.671 26.026 32.347
O 31.313 25.493 33.253
O 30.652 25.666 31.047
C 31.632 24.646 30.657
H 31.881 23.965 31.438
H 31.153 24.23  29.815
H 32.565 25.092 30.321
C 28.868 26.019 27.782
H 29.256 25.332 27.014
H 28.233 26.765 27.283
C 28.18  25.302 28.838
H 27.726 25.895 29.573
C 28.005 23.927 29.024
C 28.426 22.888 28.109
H 27.56  22.463 27.606
H 29.165 23.292 27.445
H 28.815 22.071 28.719
C 27.039 23.489 30.084
H 26.985 24.045 31.01 
H 27.541 22.615 30.505
C 25.617 23.208 29.581
H 25.345 22.166 29.625
H 25.634 23.373 28.465
C 24.526 24.206 30.137
H 25.051 24.89  30.823
H 23.799 23.527 30.666
C 23.758 24.962 29.066
H 23.72  24.264 28.294
C 24.612 26.223 28.6  
H 25.54  25.828 28.139
H 24.113 26.858 27.808
H 24.906 26.956 29.412
C 22.247 25.22  29.411
H 21.906 24.2   29.463
H 21.873 25.753 28.486
C 22.038 26.034 30.742
H 21.828 27.003 30.321
H 22.872 26.197 31.375
C 20.821 25.535 31.475
H 20.383 24.613 31.121
H 20.002 26.261 31.278
C 21.087 25.313 32.971
H 21.426 26.231 33.411
C 22.078 24.2   33.276
H 22.302 24.109 34.34 
H 21.715 23.223 33.013
H 23.016 24.371 32.791
C 19.836 25.097 33.777
H 19.147 24.295 33.444
H 19.22  25.945 33.532
C 19.901 25.229 35.311
H 19.156 26.014 35.47 
H 20.846 25.723 35.658
C 19.588 23.853 35.957
H 20.142 23.649 36.879
H 19.822 23.114 35.216
C 18.054 23.816 36.298
H 17.531 24.144 35.474
C 17.732 24.706 37.478
H 16.629 24.583 37.732
H 18.404 24.492 38.292
H 17.98  25.723 37.299
C 17.513 22.391 36.704
H 18.036 22.044 37.572
H 16.401 22.444 36.854
H 17.804 21.773 35.78 
