137

Mg 27.247 31.814 38.293
C 24.522 31.067 40.357
C 24.974 33.53  36.281
H 24.382 34.106 35.565
C 29.81  32.833 36.368
H 30.554 33.201 35.717
C 29.331 30.16  40.369
H 29.964 29.528 40.995
N 25.021 32.283 38.358
C 24.188 31.901 39.341
C 22.73 32.45 39.13
H 22.142 31.546 39.003
C 22.864 33.22  37.771
H 22.658 34.285 37.764
C 24.362 32.995 37.423
C 22.04  32.588 36.671
H 22.38  31.606 36.391
H 20.989 32.52  36.867
H 22.227 33.161 35.762
C 21.986 33.23  40.216
H 22.624 34.046 40.614
H 21.941 32.558 41.084
C 20.665 33.849 39.732
H 20.309 33.389 38.787
H 19.904 33.635 40.456
C 20.641 35.423 39.482
O 21.33  36.22  40.096
O 19.733 35.809 38.531
N 27.357 32.882 36.512
C 26.322 33.516 35.802
C 26.825 34.146 34.601
C 28.232 33.949 34.58 
C 28.512 33.191 35.833
C 25.977 34.825 33.577
H 25.505 35.765 34.044
H 26.398 35.115 32.593
H 25.235 34.015 33.391
C 29.194 34.347 33.623
H 29.026 35.354 33.284
C 30.174 33.532 33.092
H 30.312 32.442 33.26 
H 30.93  33.925 32.351
N 29.269 31.586 38.407
C 30.165 32.058 37.502
C 31.522 31.651 37.814
C 31.378 30.804 38.943
C 29.955 30.843 39.256
C 32.707 32.142 37.04 
H 33.63  31.691 37.439
H 32.633 31.959 35.945
H 32.812 33.213 37.078
C 32.446 29.969 39.532
H 32.057 28.967 39.675
H 33.251 29.85  38.821
C 32.985 30.583 40.886
H 32.145 30.685 41.512
H 33.551 29.776 41.32 
H 33.668 31.458 40.724
N 27.043 30.861 39.962
C 28.028 30.272 40.75 
C 27.439 29.695 41.862
C 26.05  29.947 41.745
C 25.872 30.68  40.606
C 28.243 28.889 42.91 
H 28.809 28.124 42.463
H 28.999 29.584 43.377
H 27.504 28.502 43.569
C 24.716 29.696 42.362
O 24.392 29.027 43.343
C 23.754 30.5   41.52 
H 23.325 31.174 42.299
C 22.832 29.4   41.026
O 23.077 28.378 40.379
O 21.561 29.731 41.465
C 20.557 28.688 41.192
H 19.663 28.949 41.757
H 20.472 28.64  40.143
H 20.914 27.743 41.611
C 19.723 37.188 38.103
H 20.66  37.59  37.758
H 19.464 37.86  38.954
C 18.726 37.546 36.985
H 17.906 36.87  37.193
C 18.848 38.259 35.835
C 20.134 39.036 35.406
H 20.966 38.331 35.305
H 19.975 39.513 34.464
H 20.582 39.641 36.125
C 17.658 38.418 34.9  
H 16.89  37.788 35.259
H 17.898 37.97  33.962
C 17.124 39.84  34.498
H 17.869 40.398 33.922
H 16.94  40.459 35.455
C 15.847 39.647 33.722
H 15.149 40.229 34.296
H 15.524 38.573 33.804
C 15.817 40.099 32.2  
H 16.373 41.024 32.214
C 14.444 40.604 31.816
H 14.102 41.28  32.642
H 14.417 41.171 30.945
H 13.68  39.811 31.701
C 16.542 39.261 31.26 
H 17.566 39.109 31.649
H 16.458 39.794 30.319
C 15.866 37.874 30.998
H 15.467 37.819 29.989
H 14.99  37.869 31.542
C 16.673 36.515 31.28 
H 16.2   36.13  32.208
H 17.711 36.724 31.411
C 16.539 35.377 30.214
H 15.446 35.059 30.148
C 17.198 34.067 30.634
H 16.884 33.289 29.949
H 18.277 34.113 30.49 
H 16.804 33.722 31.568
C 17.079 35.754 28.775
H 18.175 35.998 28.83 
H 16.725 36.751 28.511
C 16.678 34.823 27.56 
H 16.307 35.458 26.716
H 16.04  34.086 27.924
C 17.825 33.967 26.958
H 18.873 34.146 27.381
H 17.775 34.416 25.941
C 17.634 32.415 26.675
H 17.564 31.967 27.613
C 18.906 31.774 26.139
H 18.795 30.761 26.161
H 18.87  32.112 25.112
H 19.744 32.107 26.776
C 16.312 32.206 25.848
H 15.559 32.837 26.223
H 16.469 32.429 24.812
H 16.07  31.134 25.927
