137

Mg 29.357 30.184 32.158
C 26.926 30.315 34.582
C 26.852 30.394 29.783
H 26.101 30.487 28.973
C 31.654 30.209 29.758
H 32.451 30.165 29.029
C 31.768 29.888 34.519
H 32.498 29.675 35.328
N 27.108 30.344 32.208
C 26.365 30.398 33.303
C 24.869 30.269 32.956
H 24.583 29.314 33.34 
C 24.826 30.205 31.38 
H 24.406 31.039 30.863
C 26.377 30.266 31.08 
C 24.244 28.904 30.865
H 23.937 29.174 29.907
H 24.996 28.082 30.809
H 23.341 28.649 31.455
C 23.957 31.364 33.508
H 24.053 32.2   32.876
H 24.331 31.612 34.502
C 22.515 30.823 33.65 
H 22.398 29.827 33.208
H 22.294 30.716 34.707
C 21.462 31.537 32.963
O 21.569 32.41  32.115
O 20.251 31.046 33.457
N 29.222 30.299 30.171
C 28.194 30.405 29.394
C 28.563 30.705 27.99 
C 29.982 30.668 28.026
C 30.336 30.359 29.312
C 27.778 30.866 26.716
H 28.292 30.183 26.097
H 26.75  30.502 26.849
H 27.868 31.891 26.302
C 30.894 30.9   26.877
H 31.754 30.177 26.759
C 30.839 31.923 25.951
H 30.03  32.775 25.867
H 31.688 31.981 25.227
N 31.365 30.202 32.151
C 32.161 30.183 31.059
C 33.583 30.213 31.383
C 33.574 30.229 32.805
C 32.185 30.085 33.227
C 34.782 30.179 30.389
H 35.689 30.438 30.903
H 34.849 29.158 30.01 
H 34.692 30.936 29.654
C 34.8   30.311 33.731
H 34.609 29.695 34.589
H 35.761 30.083 33.154
C 34.948 31.733 34.382
H 34.151 32.036 35.094
H 35.881 31.734 34.949
H 35.12  32.444 33.594
N 29.398 30.065 34.038
C 30.426 29.971 34.905
C 29.992 29.858 36.246
C 28.618 30.044 36.161
C 28.294 30.16  34.808
C 30.989 29.678 37.454
H 30.512 30.119 38.29 
H 31.053 28.616 37.703
H 31.978 30.193 37.285
C 27.38  30.043 36.926
O 27.137 29.999 38.072
C 26.235 30.207 35.909
H 25.78  31.065 36.243
C 25.313 29.102 36.109
O 25.591 27.957 35.89 
O 24.113 29.427 36.679
C 23.261 28.402 37.277
H 23.589 27.937 38.247
H 22.337 28.985 37.59 
H 23.107 27.613 36.56 
C 19.04  31.735 32.975
H 19.189 32.834 33.022
H 18.191 31.454 33.571
C 18.803 31.077 31.58 
H 19.051 30.066 31.433
C 18.194 31.775 30.55 
C 17.797 33.219 30.581
H 18.746 33.708 30.299
H 17.031 33.445 29.876
H 17.559 33.542 31.637
C 18.324 31.022 29.238
H 19.037 30.116 29.145
H 18.752 31.712 28.548
C 16.948 30.547 28.718
H 16.229 31.283 29.072
H 16.66  29.579 29.158
C 16.984 30.351 27.177
H 17.999 30.318 26.891
H 16.535 31.342 26.738
C 16.373 29.089 26.515
H 16.975 28.341 27.056
C 16.6   28.977 24.963
H 17.651 28.986 24.685
H 16.079 28.126 24.599
H 16.033 29.85  24.553
C 14.889 28.918 26.919
H 14.605 28.485 27.88 
H 14.495 28.287 26.155
C 14.004 30.216 26.762
H 14.47  31.011 26.201
H 14.008 30.609 27.747
C 12.538 29.967 26.234
H 12.522 29.041 25.795
H 12.334 30.76  25.534
C 11.397 30.088 27.305
H 11.666 31.033 27.754
C 11.635 28.845 28.314
H 11.34  27.927 27.89 
H 12.665 28.792 28.658
H 11.008 29.018 29.164
C 10.014 30.297 26.775
H  9.779 29.338 26.347
H 10.079 31.029 25.909
C  8.938 30.641 27.801
H  9.532 30.913 28.782
H  8.354 29.807 28.171
C  8.115 31.866 27.352
H  8.175 31.943 26.337
H  8.52  32.684 27.919
C  6.557 31.739 27.586
H  6.327 30.717 27.19 
C  5.78  32.936 26.941
H  6.332 33.129 26.037
H  4.81  32.55  26.609
H  5.805 33.833 27.559
C  6.255 31.63  29.109
H  6.732 30.742 29.599
H  6.544 32.595 29.592
H  5.198 31.427 29.106
