137

Mg 22.394 18.554 26.949
C 23.839 18.006 23.914
C 25.226 20.364 27.914
H 26.039 20.989 28.192
C 21.008 18.925 29.884
H 20.544 19.245 30.784
C 19.862 16.404 25.874
H 19.021 15.772 25.606
N 24.18  19.129 25.972
C 24.587 18.882 24.722
C 26.032 19.492 24.395
H 26.825 18.828 24.089
C 26.436 19.966 25.718
H 26.574 20.994 25.731
C 25.213 19.803 26.601
C 27.742 19.296 26.327
H 27.733 18.214 26.181
H 28.48  19.719 25.671
H 27.826 19.577 27.361
C 25.935 20.436 23.161
H 25.239 21.212 23.515
H 25.48  19.899 22.309
C 27.233 21.095 22.693
H 27.934 20.73  23.434
H 27.629 20.592 21.781
C 27.213 22.618 22.672
O 28.091 23.326 23.112
O 26.001 23.125 22.138
N 23.054 19.447 28.676
C 24.227 20.103 28.854
C 24.219 20.68  30.231
C 22.978 20.219 30.821
C 22.294 19.47  29.788
C 25.357 21.501 30.777
H 25.408 21.43  31.902
H 26.308 21.07  30.434
H 25.364 22.519 30.479
C 22.384 20.474 32.197
H 21.292 20.558 32.24 
C 23.011 20.483 33.397
H 24.04  20.407 33.479
H 22.436 20.813 34.307
N 20.716 17.83  27.739
C 20.286 18.139 29.003
C 18.997 17.489 29.179
C 18.663 16.774 27.999
C 19.778 17.021 27.146
C 18.178 17.688 30.437
H 17.272 17.092 30.476
H 18.725 17.316 31.243
H 17.897 18.736 30.641
C 17.389 15.935 27.757
H 17.618 15.054 27.216
H 17.024 15.606 28.766
C 16.339 16.836 27.11 
H 16.352 17.804 27.642
H 16.555 17.153 26.067
H 15.392 16.373 27.181
N 21.882 17.371 25.287
C 20.816 16.542 24.955
C 21.008 15.91  23.64 
C 22.236 16.436 23.221
C 22.68  17.356 24.253
C 20.097 14.886 22.949
H 19.566 14.223 23.548
H 19.258 15.384 22.478
H 20.684 14.199 22.314
C 23.202 16.468 22.116
O 23.148 15.963 21.007
C 24.154 17.469 22.512
H 24.057 18.264 21.737
C 25.569 17.027 22.245
O 26.231 16.322 23.032
O 25.985 17.489 21.028
C 27.383 17.275 20.681
H 28.092 17.836 21.226
H 27.554 16.178 20.633
H 27.468 17.588 19.628
C 25.994 24.566 22.207
H 26.581 24.966 21.381
H 26.431 24.964 23.16 
C 24.565 24.911 22.172
H 24.133 24.852 23.188
C 23.797 25.426 21.16 
C 24.394 25.896 19.825
H 23.669 25.567 19.055
H 24.4   26.957 19.726
H 25.351 25.421 19.585
C 22.341 25.722 21.418
H 21.882 25.072 22.19 
H 21.755 25.419 20.539
C 22.122 27.144 21.806
H 21.687 27.672 20.981
H 23.082 27.642 21.885
C 21.258 27.456 23.088
H 20.876 26.519 23.491
H 20.335 27.912 22.773
C 21.99  28.107 24.248
H 22.594 28.968 23.862
C 23.002 27.119 24.845
H 23.473 27.386 25.72 
H 22.434 26.199 25.237
H 23.726 26.809 24.067
C 21.035 28.776 25.318
H 21.745 29.191 25.972
H 20.412 28.129 25.788
C 20.122 29.87  24.806
H 19.085 29.438 24.745
H 20.308 30.179 23.77 
C 20.034 31.06  25.828
H 19.987 32.058 25.26 
H 20.918 31.187 26.367
C 18.799 31.081 26.901
H 17.86  30.861 26.358
C 18.63  32.456 27.598
H 19.392 32.858 28.282
H 18.522 33.092 26.718
H 17.731 32.364 28.199
C 18.871 29.79  27.839
H 19.859 29.623 28.313
H 18.676 28.904 27.19 
C 17.734 29.707 28.864
H 17.427 28.653 28.848
H 16.785 30.262 28.739
C 18.231 29.982 30.33 
H 19.085 30.657 30.341
H 18.559 29.065 30.834
C 17.171 30.686 31.227
H 16.842 31.577 30.69 
C 17.868 31.299 32.439
H 18.478 32.137 32.11 
H 17.113 31.668 33.179
H 18.549 30.585 32.859
C 16.001 29.844 31.794
H 15.319 29.654 30.95 
H 16.351 28.95  32.188
H 15.381 30.37  32.445
