137

Mg 23.143 20.016 27.978
C 23.139 17.378 25.831
C 26.018 21.143 26.491
H 26.788 21.672 25.959
C 23.481 22.278 30.471
H 23.697 23.115 31.247
C 20.323 18.624 29.568
H 19.436 18.178 29.904
N 24.35  19.391 26.355
C 24.124 18.255 25.565
C 25.124 18.15  24.44 
H 25.62  17.173 24.4  
C 26.184 19.204 24.901
H 26.333 19.783 24.005
C 25.473 20.017 25.924
C 27.651 18.653 25.223
H 27.48  17.785 25.846
H 28.216 18.519 24.255
H 28.16  19.389 25.789
C 24.506 18.341 23.049
H 23.832 19.183 23.044
H 23.861 17.492 22.827
C 25.489 18.363 21.873
H 26.533 18.429 22.222
H 25.365 17.461 21.295
C 25.227 19.438 20.849
O 25.343 19.227 19.648
O 24.875 20.619 21.461
N 24.478 21.564 28.39 
C 25.601 21.86  27.7  
C 26.361 22.961 28.381
C 25.521 23.354 29.403
C 24.417 22.416 29.4  
C 27.704 23.482 27.831
H 28.429 22.866 28.364
H 27.759 23.387 26.786
H 27.862 24.569 28.144
C 25.751 24.259 30.52 
H 24.906 24.635 31.03 
C 26.957 24.514 31.037
H 27.895 24.223 30.534
H 27.166 25.351 31.77 
N 22.044 20.438 29.727
C 22.416 21.372 30.638
C 21.556 21.304 31.74 
C 20.523 20.348 31.377
C 20.947 19.709 30.196
C 21.639 22.078 33.068
H 20.756 22.675 33.003
H 21.571 21.378 33.955
H 22.566 22.631 33.134
C 19.271 20.127 32.227
H 19.292 19.088 32.719
H 19.193 20.881 32.974
C 18.033 20.288 31.364
H 17.907 19.536 30.568
H 17.198 20.155 31.988
H 18.045 21.289 30.991
N 21.847 18.519 27.723
C 20.783 18.022 28.442
C 20.293 16.786 27.875
C 21.198 16.487 26.869
C 22.167 17.571 26.844
C 18.983 15.964 28.111
H 18.885 15.602 29.16 
H 18.157 16.56  27.823
H 18.971 15.057 27.395
C 21.517 15.651 25.759
O 20.78  14.773 25.254
C 22.872 16.046 25.127
H 22.701 16.325 24.095
C 23.855 15.091 25.328
O 24.04  14.647 26.462
O 24.482 14.698 24.22 
C 25.381 13.559 24.518
H 24.846 12.752 24.957
H 25.792 13.267 23.551
H 26.132 13.839 25.206
C 24.527 21.744 20.534
H 23.786 21.435 19.821
H 25.546 21.731 20.133
C 24.226 22.976 21.444
H 25.043 23.179 22.234
C 23.128 23.795 21.49 
C 21.962 23.611 20.473
H 22.045 22.792 19.79 
H 21.034 23.492 21.016
H 21.923 24.566 19.894
C 23.048 24.908 22.44 
H 23.907 24.841 23.126
H 22.175 24.702 23.073
C 22.992 26.262 21.732
H 21.961 26.636 21.72 
H 23.321 26.199 20.73 
C 23.911 27.337 22.392
H 24.262 26.876 23.304
H 23.114 28.049 22.633
C 25.081 27.998 21.684
H 24.782 28.54  20.756
C 26.267 27.093 21.219
H 26.672 26.514 22.044
H 25.869 26.32  20.568
H 27.013 27.668 20.711
C 25.645 29.122 22.638
H 26.621 29.511 22.208
H 25.903 28.817 23.594
C 24.709 30.361 22.754
H 23.864 30.374 22.131
H 25.319 31.251 22.427
C 24.224 30.668 24.179
H 24.81  31.485 24.608
H 24.365 29.758 24.799
C 22.842 31.056 24.455
H 22.23  30.298 23.874
C 22.475 32.459 23.82 
H 22.653 32.502 22.761
H 21.476 32.572 24.077
H 23.108 33.172 24.38 
C 22.398 31.003 25.95 
H 22.97  31.773 26.498
H 22.724 30.029 26.244
C 20.965 31.076 26.288
H 20.462 31.238 25.32 
H 20.736 31.871 26.977
C 20.363 29.789 26.961
H 21.042 29.264 27.62 
H 20.105 29.104 26.189
C 19.05  30.133 27.793
H 19.225 31.033 28.327
C 18.735 29.008 28.722
H 17.832 29.304 29.287
H 18.432 28.213 28.084
H 19.531 28.738 29.363
C 17.914 30.253 26.753
H 17.449 29.351 26.381
H 17.149 30.798 27.284
H 18.255 30.868 25.947
