137

Mg 22.103 18.544 28.171
C 22.303 18.682 24.837
C 25.04  20.284 28.306
H 25.997 20.838 28.33 
C 21.942 18.64  31.54 
H 21.826 18.734 32.602
C 19.064 17.063 27.998
H 18.084 16.606 27.886
N 23.589 19.224 26.794
C 23.436 19.26  25.428
C 24.675 19.67  24.668
H 25.    18.773 24.206
C 25.59  20.065 25.84 
H 25.78  21.133 25.83 
C 24.769 19.84  27.049
C 26.88  19.182 25.897
H 26.622 18.144 26.173
H 27.518 19.035 25.043
H 27.442 19.722 26.698
C 24.531 20.797 23.674
H 23.847 21.605 24.013
H 23.947 20.342 22.845
C 25.686 21.249 22.839
H 26.594 20.603 23.031
H 25.616 21.065 21.796
C 26.2  22.72 23.02
O 27.192 22.976 23.712
O 25.402 23.716 22.588
N 23.348 19.272 29.702
C 24.477 20.016 29.522
C 24.993 20.369 30.89 
C 24.02  19.905 31.798
C 23.096 19.211 30.968
C 26.301 21.04  31.098
H 27.066 20.567 30.566
H 26.244 22.112 30.736
H 26.722 21.085 32.176
C 23.771 20.152 33.256
H 22.787 20.463 33.573
C 24.657 19.966 34.198
H 25.683 19.538 33.945
H 24.375 20.023 35.314
N 20.793 17.837 29.546
C 20.922 17.988 30.901
C 19.751 17.296 31.488
C 18.95 16.86 30.42
C 19.567 17.214 29.23 
C 19.344 17.217 32.972
H 18.299 17.273 33.316
H 19.778 16.279 33.368
H 19.781 18.089 33.53 
C 17.635 16.135 30.651
H 17.673 15.265 29.973
H 17.482 15.792 31.699
C 16.439 16.939 30.17 
H 16.282 17.813 30.832
H 16.433 17.269 29.131
H 15.583 16.325 30.275
N 20.925 18.03  26.757
C 19.671 17.428 26.825
C 19.117 17.278 25.468
C 20.197 17.621 24.72 
C 21.228 18.154 25.511
C 17.789 16.677 25.184
H 17.821 15.656 25.628
H 17.054 17.315 25.63 
H 17.585 16.647 24.147
C 20.55  17.884 23.348
O 19.91  17.725 22.33 
C 21.966 18.462 23.379
H 21.928 19.344 22.774
C 22.823 17.387 22.784
O 23.182 16.361 23.307
O 23.213 17.771 21.5  
C 24.181 16.88  20.792
H 25.131 17.198 21.199
H 23.902 15.841 21.124
H 24.088 17.071 19.743
C 25.774 25.074 23.015
H 26.638 25.497 22.581
H 25.809 25.182 24.089
C 24.614 25.976 22.479
H 23.716 25.652 22.89 
C 24.583 27.102 21.676
C 25.788 27.823 21.213
H 25.495 28.032 20.184
H 25.909 28.678 21.849
H 26.685 27.235 21.139
C 23.272 27.786 21.497
H 22.494 27.029 21.334
H 23.385 28.344 20.589
C 22.668 28.642 22.676
H 22.435 29.56  22.156
H 23.539 28.766 23.282
C 21.379 28.1   23.389
H 20.974 27.149 22.994
H 20.654 28.853 23.16 
C 21.506 27.94  24.943
H 21.8   28.849 25.461
C 22.639 26.948 25.26 
H 22.696 26.822 26.381
H 22.366 26.032 24.814
H 23.554 27.305 24.887
C 20.15  27.489 25.606
H 20.379 27.159 26.651
H 19.784 26.691 25.082
C 19.109 28.578 25.74 
H 18.117 28.118 25.697
H 19.257 29.289 24.863
C 19.304 29.599 26.923
H 19.688 30.45  26.437
H 20.178 29.267 27.536
C 17.979 29.956 27.769
H 17.237 30.584 27.204
C 18.382 30.959 28.874
H 18.932 30.537 29.719
H 18.98  31.678 28.324
H 17.452 31.384 29.206
C 17.3   28.711 28.475
H 18.098 28.294 29.068
H 16.959 28.069 27.577
C 16.094 28.916 29.466
H 15.142 28.475 29.095
H 15.807 29.934 29.539
C 16.193 28.344 30.902
H 17.14  28.007 31.155
H 15.561 27.44  30.97 
C 15.91  29.385 32.105
H 16.43  30.315 31.909
C 16.328 29.046 33.577
H 17.474 28.996 33.742
H 15.826 29.814 34.226
H 15.937 28.084 33.783
C 14.425 29.754 32.244
H 13.982 29.822 31.273
H 13.864 28.847 32.556
H 14.209 30.645 32.777
