137

Mg 24.218 31.603 30.919
C 23.656 28.644 32.675
C 20.764 31.999 30.662
H 19.675 32.038 30.557
C 24.697 34.659 29.631
H 24.898 35.603 29.191
C 27.576 31.182 31.42 
H 28.682 31.108 31.507
N 22.549 30.512 31.561
C 22.54  29.364 32.432
C 21.14  28.966 32.856
H 20.948 27.901 32.76 
C 20.326 29.798 31.869
H 19.557 30.35  32.397
C 21.256 30.906 31.405
C 19.559 28.947 30.764
H 19.187 29.627 30.003
H 20.387 28.316 30.349
H 18.691 28.339 31.114
C 20.896 29.217 34.309
H 21.154 30.238 34.499
H 21.623 28.587 34.796
C 19.362 28.967 34.686
H 18.836 28.426 33.892
H 19.273 28.157 35.37 
C 18.553 30.133 35.145
O 18.249 30.334 36.334
O 17.958 30.754 34.1  
N 22.926 33.127 30.198
C 21.56  32.943 30.005
C 21.036 34.07  29.197
C 22.186 34.888 29.033
C 23.348 34.245 29.682
C 19.612 34.117 28.586
H 19.676 33.88  27.467
H 18.891 33.442 29.119
H 19.182 35.093 28.721
C 22.231 36.236 28.288
H 23.226 36.747 28.376
C 21.351 36.884 27.515
H 20.407 36.352 27.336
H 21.469 37.87  27.074
N 25.872 32.694 30.588
C 25.857 34.018 30.053
C 27.24  34.54  29.856
C 28.068 33.534 30.333
C 27.226 32.378 30.794
C 27.544 35.982 29.298
H 28.521 36.248 29.634
H 27.555 35.979 28.189
H 26.804 36.649 29.623
C 29.572 33.634 30.358
H 29.961 32.885 29.636
H 29.928 34.534 29.89 
C 30.363 33.43  31.673
H 30.218 32.468 32.21 
H 31.452 33.591 31.427
H 30.053 34.253 32.371
N 25.374 30.228 31.807
C 26.697 30.128 31.962
C 27.123 28.798 32.443
C 25.94  28.146 32.718
C 24.933 29.105 32.386
C 28.472 28.222 32.432
H 28.505 27.504 33.211
H 28.838 27.647 31.561
H 29.225 28.992 32.584
C 25.267 26.954 33.138
O 25.711 25.882 33.516
C 23.78  27.25  33.333
H 23.52  27.072 34.357
C 23.194 26.227 32.441
O 23.377 26.052 31.251
O 22.334 25.404 33.185
C 21.684 24.289 32.52 
H 22.441 23.529 32.24 
H 20.97  23.931 33.135
H 21.262 24.461 31.622
C 17.03  31.813 34.553
H 17.636 32.661 34.955
H 16.337 31.506 35.322
C 16.178 32.253 33.402
H 15.355 31.635 33.018
C 16.508 33.214 32.491
C 17.538 34.181 32.755
H 17.089 35.04  33.145
H 18.38  33.809 33.457
H 18.017 34.498 31.803
C 15.64  33.359 31.277
H 15.11  32.399 31.063
H 16.293 33.597 30.418
C 14.526 34.455 31.433
H 14.715 35.049 32.326
H 13.638 33.921 31.733
C 14.259 35.435 30.162
H 13.161 35.435 29.897
H 14.839 35.206 29.319
C 14.413 36.984 30.412
H 13.893 37.163 31.345
C 13.682 37.715 29.306
H 13.685 38.813 29.457
H 14.047 37.578 28.293
H 12.641 37.45  29.244
C 15.825 37.408 30.722
H 16.29  36.803 31.502
H 15.761 38.327 31.206
C 16.725 37.448 29.479
H 16.335 36.908 28.673
H 17.673 37.034 29.736
C 17.127 38.82  28.963
H 18.177 39.046 29.08 
H 16.538 39.437 29.489
C 16.708 39.285 27.538
H 15.628 39.154 27.471
C 17.408 38.419 26.513
H 17.382 37.388 26.661
H 16.884 38.525 25.558
H 18.425 38.701 26.413
C 17.054 40.839 27.36 
H 16.861 41.2   26.352
H 18.092 40.944 27.546
C 16.558 41.911 28.35 
H 15.597 41.679 28.879
H 16.478 42.882 27.744
C 17.636 42.206 29.517
H 18.313 41.374 29.501
H 16.974 42.202 30.358
C 18.381 43.546 29.495
H 17.8   44.342 29.057
C 19.539 43.373 28.576
H 19.961 42.365 28.596
H 19.078 43.402 27.61 
H 20.265 44.246 28.75 
C 18.96  43.973 30.878
H 19.21  44.999 30.76 
H 18.2   43.982 31.62 
H 19.932 43.409 31.207
