137

Mg 21.448 17.717 31.927
C 24.534 16.58  30.81 
C 22.468 20.774 31.247
H 22.791 21.822 31.076
C 18.296 18.751 32.13 
H 17.264 18.982 32.128
C 20.314 14.362 32.015
H 20.005 13.292 31.949
N 23.309 18.553 31.286
C 24.495 17.928 30.853
C 25.52  18.964 30.483
H 26.408 18.922 31.167
C 24.831 20.292 30.787
H 24.801 20.908 29.952
C 23.489 19.861 31.173
C 25.602 21.03  31.964
H 26.439 21.476 31.464
H 25.012 21.773 32.503
H 25.929 20.272 32.676
C 25.994 18.852 28.993
H 25.135 19.102 28.35 
H 26.149 17.787 28.724
C 27.152 19.796 28.551
H 27.539 20.254 29.484
H 28.004 19.263 28.144
C 26.829 20.987 27.62 
O 27.465 21.306 26.67 
O 25.697 21.689 27.938
N 20.564 19.482 31.751
C 21.123 20.665 31.463
C 20.123 21.67  31.514
C 18.852 21.083 31.598
C 19.208 19.701 31.852
C 20.419 23.148 31.258
H 19.523 23.763 31.373
H 21.061 23.543 32.026
H 20.921 23.369 30.259
C 17.455 21.596 31.449
H 16.652 21.253 32.077
C 17.084 22.513 30.516
H 17.735 22.965 29.766
H 16.014 22.878 30.543
N 19.635 16.742 32.306
C 18.434 17.381 32.42 
C 17.379 16.407 32.835
C 18.052 15.167 32.675
C 19.388 15.359 32.268
C 16.001 16.85  33.276
H 15.875 17.907 33.332
H 15.189 16.545 32.619
H 15.695 16.441 34.268
C 17.42  13.787 32.798
H 17.276 13.226 31.878
H 18.143 13.225 33.492
C 16.202 13.72  33.613
H 15.884 12.685 33.722
H 16.361 13.958 34.67 
H 15.371 14.254 33.197
N 22.213 15.856 31.652
C 21.673 14.575 31.75 
C 22.682 13.56  31.407
C 23.804 14.307 31.032
C 23.47  15.707 31.172
C 22.456 12.074 31.561
H 23.023 11.721 32.348
H 21.452 11.628 31.538
H 22.909 11.792 30.67 
C 25.222 14.245 30.582
O 25.931 13.314 30.346
C 25.704 15.709 30.283
H 25.911 15.733 29.225
C 26.898 15.824 31.038
O 26.973 16.099 32.196
O 28.006 15.671 30.218
C 29.232 16.201 30.688
H 29.466 15.734 31.632
H 29.997 16.091 29.994
H 29.167 17.25  30.996
C 25.339 22.808 27.033
H 24.995 22.365 26.165
H 26.124 23.509 26.747
C 24.268 23.622 27.619
H 24.591 23.958 28.647
C 23.056 24.037 27.284
C 22.487 23.716 25.926
H 21.653 23.027 25.925
H 22.093 24.625 25.45 
H 23.262 23.314 25.239
C 22.18  24.837 28.246
H 22.445 24.557 29.301
H 21.178 24.474 28.026
C 22.322 26.353 27.964
H 23.136 26.598 27.321
H 22.563 26.824 28.943
C 21.2   26.927 27.187
H 20.24  26.378 27.156
H 21.471 26.983 26.165
C 21.04  28.436 27.619
H 22.093 28.84  27.606
C 20.415 28.486 28.991
H 19.512 27.834 28.939
H 21.151 28.13  29.848
H 20.119 29.466 29.397
C 20.267 29.17  26.44 
H 19.268 28.672 26.401
H 20.809 29.082 25.515
C 19.985 30.678 26.628
H 20.633 31.207 25.98 
H 20.16  30.962 27.655
C 18.586 31.253 26.194
H 18.106 30.542 25.431
H 18.826 32.12  25.582
C 17.651 31.664 27.388
H 18.09  32.425 27.997
C 17.269 30.393 28.247
H 16.831 29.586 27.68 
H 18.204 30.072 28.74 
H 16.493 30.647 29.018
C 16.367 32.377 26.799
H 15.729 31.514 26.36 
H 16.715 32.965 25.933
C 15.586 33.287 27.673
H 16.263 33.765 28.313
H 14.914 32.747 28.303
C 14.625 34.199 26.93 
H 13.575 33.936 27.193
H 14.71  34.024 25.875
C 14.844 35.697 27.151
H 14.8   36.027 28.202
C 13.668 36.473 26.522
H 13.798 37.504 26.71 
H 13.642 36.275 25.422
H 12.697 36.179 26.852
C 16.154 36.221 26.448
H 16.194 36.052 25.355
H 16.296 37.263 26.794
H 16.931 35.676 27.005
