137

Mg 30.102 31.252 33.196
C 27.328 30.277 35.17 
C 27.957 31.781 30.633
H 27.283 31.923 29.818
C 32.58  32.886 31.674
H 33.477 33.344 31.139
C 32.013 30.882 36.111
H 32.569 30.478 36.95 
N 27.918 30.929 32.865
C 26.975 30.541 33.827
C 25.542 30.412 33.263
H 25.347 29.369 33.285
C 25.814 30.826 31.769
H 25.186 31.728 31.605
C 27.313 31.208 31.685
C 25.321 29.71  30.778
H 25.447 30.119 29.817
H 26.026 28.835 30.811
H 24.354 29.494 31.063
C 24.445 31.254 34.007
H 24.811 32.284 33.803
H 24.519 31.252 35.101
C 22.984 30.978 33.581
H 22.98  30.136 32.89 
H 22.548 30.569 34.489
C 22.051 32.03  32.934
O 22.24  32.616 31.847
O 20.857 32.07  33.654
N 30.285 32.072 31.352
C 29.327 32.14  30.405
C 29.796 32.832 29.276
C 31.155 33.09  29.508
C 31.39  32.662 30.873
C 28.994 33.093 28.052
H 28.85  32.238 27.38 
H 28.08  33.608 28.4  
H 29.526 33.856 27.468
C 32.127 33.839 28.716
H 32.621 34.671 29.275
C 32.373 33.617 27.399
H 31.84  32.881 26.779
H 33.179 34.172 26.924
N 32.001 31.762 33.786
C 32.921 32.435 32.997
C 34.152 32.525 33.736
C 33.922 31.942 34.982
C 32.597 31.502 35.019
C 35.344 33.064 33.052
H 36.02  33.224 33.89 
H 35.818 32.279 32.325
H 35.154 34.005 32.524
C 34.977 31.794 36.088
H 35.142 30.771 36.373
H 35.922 32.147 35.653
C 34.8   32.565 37.358
H 34.032 32.154 38.12 
H 35.723 32.806 37.845
H 34.424 33.549 37.138
N 29.832 30.781 35.183
C 30.72  30.607 36.232
C 30.041 30.099 37.43 
C 28.739 29.978 36.981
C 28.62  30.392 35.678
C 30.587 29.851 38.789
H 30.086 28.918 39.247
H 31.698 29.697 38.652
H 30.541 30.813 39.269
C 27.497 29.563 37.482
O 27.144 29.229 38.587
C 26.498 29.784 36.316
H 25.841 30.585 36.625
C 25.847 28.382 36.174
O 26.472 27.388 35.888
O 24.567 28.398 36.711
C 24.066 27.014 36.846
H 24.746 26.502 37.602
H 23.127 27.06  37.336
H 23.872 26.402 35.948
C 19.74  32.797 33.058
H 20.154 33.642 32.479
H 19.108 33.152 33.919
C 19.145 31.864 31.996
H 19.226 30.75  32.069
C 18.499 32.301 30.865
C 18.286 33.798 30.436
H 18.404 33.877 29.283
H 17.244 34.018 30.705
H 18.835 34.569 30.981
C 17.776 31.289 29.964
H 18.315 30.359 29.873
H 17.722 31.591 28.894
C 16.402 30.89  30.452
H 16.134 31.295 31.457
H 16.384 29.817 30.628
C 15.223 31.133 29.426
H 15.622 31.533 28.533
H 14.5   31.838 29.828
C 14.544 29.834 29.059
H 14.528 29.142 29.881
C 15.27  29.083 27.844
H 16.291 28.722 28.143
H 14.697 28.218 27.61 
H 15.42  29.651 26.944
C 13.034 30.113 28.726
H 12.6   30.832 29.438
H 12.516 29.177 28.74 
C 12.789 30.601 27.33 
H 13.686 30.575 26.7  
H 12.473 31.678 27.389
C 11.81  29.751 26.495
H 11.538 28.757 26.973
H 12.365 29.591 25.565
C 10.455 30.478 26.13 
H 10.802 31.382 25.638
C  9.702 30.852 27.428
H  9.619 29.931 28.086
H 10.163 31.693 27.945
H  8.689 31.115 27.08 
C  9.531 29.64  25.074
H  9.332 28.675 25.589
H 10.189 29.47  24.238
C  8.279 30.446 24.539
H  8.429 30.558 23.446
H  8.221 31.474 24.88 
C  6.941 29.79  24.716
H  7.073 28.916 25.422
H  6.633 29.428 23.721
C  5.833 30.704 25.205
H  6.243 31.237 26.065
C  4.57  29.891 25.486
H  4.747 29.298 26.41 
H  3.695 30.469 25.726
H  4.234 29.276 24.653
C  5.454 31.836 24.184
H  6.257 32.582 24.003
H  5.212 31.37  23.213
H  4.536 32.37  24.47 
