137

Mg 26.778 32.891 32.551
C 25.239 31.919 35.463
C 23.672 33.431 31.148
H 22.799 33.337 30.613
C 28.362 34.179 29.942
H 28.75  34.481 28.94 
C 29.837 32.343 34.044
H 30.767 32.272 34.517
N 24.715 32.925 33.295
C 24.303 32.544 34.598
C 22.819 32.69  34.727
H 22.407 31.819 35.188
C 22.312 32.792 33.294
H 21.64  33.613 33.159
C 23.63  33.033 32.548
C 21.66  31.495 32.853
H 22.327 30.61  32.99 
H 20.782 31.474 33.405
H 21.422 31.551 31.785
C 22.323 33.838 35.674
H 22.658 34.817 35.353
H 22.7   33.598 36.616
C 20.763 33.92  35.877
H 20.125 33.446 35.103
H 20.475 33.38  36.762
C 20.178 35.31  36.078
O 20.665 36.155 36.819
O 19.055 35.434 35.298
N 26.126 33.849 30.861
C 24.913 33.783 30.385
C 24.858 34.338 29.046
C 26.21  34.432 28.662
C 26.953 34.193 29.872
C 23.583 34.543 28.348
H 23.627 35.528 27.777
H 23.367 33.758 27.653
H 22.756 34.68  29.06 
C 26.745 35.032 27.411
H 27.548 35.776 27.469
C 26.31  34.744 26.222
H 25.56  33.947 26.08 
H 26.894 35.086 25.364
N 28.792 33.211 32.086
C 29.272 33.794 30.919
C 30.702 33.982 30.909
C 31.11  33.431 32.168
C 29.88  32.965 32.797
C 31.505 34.667 29.757
H 31.658 34.059 28.926
H 31.053 35.62  29.455
H 32.467 34.911 30.266
C 32.548 33.422 32.587
H 32.729 32.598 33.266
H 33.199 33.241 31.698
C 32.802 34.717 33.273
H 33.905 34.844 33.388
H 32.372 35.492 32.666
H 32.275 34.738 34.246
N 27.459 32.176 34.233
C 28.701 31.886 34.733
C 28.627 31.194 36.012
C 27.305 31.269 36.268
C 26.638 31.837 35.262
C 29.77  30.877 36.933
H 30.738 31.017 36.395
H 29.82  31.563 37.846
H 29.855 29.851 37.178
C 26.421 30.928 37.36 
O 26.573 30.496 38.472
C 25.014 31.361 36.859
H 24.587 32.124 37.533
C 24.263 30.179 36.928
O 24.358 29.148 36.22 
O 23.202 30.278 37.813
C 22.301 29.026 37.9  
H 21.799 28.852 36.961
H 22.976 28.239 38.07 
H 21.492 29.199 38.602
C 18.461 36.72  35.531
H 19.241 37.477 35.549
H 17.943 36.796 36.423
C 17.537 36.832 34.323
H 17.991 36.514 33.394
C 16.168 36.956 34.297
C 15.253 37.199 35.468
H 15.767 37.012 36.467
H 15.085 38.194 35.518
H 14.228 36.68  35.348
C 15.565 37.192 32.916
H 16.435 37.413 32.31 
H 15.1   38.197 32.906
C 14.781 36.086 32.34 
H 14.929 35.208 32.972
H 15.205 35.865 31.363
C 13.241 36.251 32.383
H 12.908 37.325 32.233
H 12.839 35.868 33.332
C 12.5   35.635 31.147
H 12.911 36.066 30.218
C 10.959 36.107 31.195
H 10.402 35.625 32.03 
H 10.872 37.195 31.268
H 10.576 35.679 30.26 
C 12.698 34.084 31.118
H 13.729 33.883 31.13 
H 12.329 33.67  30.162
C 12.13  33.242 32.275
H 11.324 32.599 31.948
H 11.74  33.857 33.014
C 13.191 32.324 33.018
H 13.173 32.793 33.972
H 14.222 32.244 32.622
C 12.709 30.861 33.193
H 11.646 30.684 33.162
C 12.914 30.499 34.678
H 12.501 29.44  34.871
H 13.91  30.539 34.933
H 12.261 31.143 35.256
C 13.372 29.887 32.27 
H 14.401 29.77  32.663
H 13.417 30.368 31.318
C 12.815 28.478 32.189
H 11.84  28.489 32.63 
H 13.459 27.835 32.734
C 12.611 27.961 30.718
H 12.765 26.87  30.601
H 13.34  28.438 30.031
C 11.165 28.031 30.146
H 10.56  27.393 30.793
C 11.039 27.487 28.722
H 10.128 27.918 28.24 
H 11.925 27.815 28.143
H 11.065 26.372 28.782
C 10.55  29.542 30.103
H  9.525 29.665 29.692
H 10.373 29.792 31.163
H 11.242 30.284 29.708
