137

Mg 36.981 34.677 35.629
C 33.682 35.402 35.645
C 36.238 31.677 34.145
H 36.016 30.747 33.696
C 40.253 33.857 35.767
H 41.273 33.492 35.791
C 37.75  37.788 36.995
H 37.987 38.802 37.371
N 35.149 33.571 35.197
C 33.927 34.079 35.27 
C 32.83  33.035 34.779
H 32.164 32.858 35.627
C 33.631 31.781 34.543
H 33.459 31.286 33.559
C 35.122 32.395 34.588
C 33.51  30.829 35.697
H 33.52  31.41  36.626
H 32.527 30.377 35.64 
H 34.366 30.067 35.64 
C 32.004 33.548 33.474
H 32.756 33.6   32.68 
H 31.646 34.515 33.71 
C 30.795 32.716 33.032
H 30.94  32.206 32.056
H 30.727 31.915 33.769
C 29.383 33.354 32.854
O 29.027 34.26  33.58 
O 28.55  32.692 31.938
N 38.055 33.006 35.079
C 37.608 31.882 34.51 
C 38.741 31.008 34.133
C 39.858 31.667 34.549
C 39.403 32.87  35.208
C 38.619 29.596 33.609
H 39.299 28.862 34.18 
H 37.655 29.221 33.996
H 38.647 29.471 32.563
C 41.227 31.201 34.555
H 41.768 31.442 35.491
C 41.754 30.439 33.612
H 41.243 30.281 32.633
H 42.773 30.062 33.64 
N 38.635 35.676 36.319
C 39.897 35.075 36.321
C 40.85  36.126 36.783
C 40.176 37.311 37.011
C 38.823 36.932 36.784
C 42.348 35.955 36.701
H 42.584 35.724 35.698
H 42.763 36.946 36.872
H 42.607 35.119 37.434
C 40.713 38.65  37.452
H 39.978 39.031 38.175
H 41.62  38.515 38.056
C 40.954 39.595 36.254
H 41.608 40.431 36.449
H 41.243 39.033 35.36 
H 39.942 40.066 36.045
N 36.01  36.399 36.105
C 36.353 37.545 36.759
C 35.22  38.315 37.01 
C 34.163 37.556 36.541
C 34.654 36.34  36.057
C 35.155 39.637 37.708
H 34.792 40.335 36.985
H 34.478 39.453 38.558
H 36.13  39.931 37.991
C 32.721 37.495 36.452
O 31.89  38.335 36.792
C 32.319 36.103 35.77 
H 31.905 36.211 34.798
C 31.452 35.491 36.842
O 31.89  35.034 37.883
O 30.196 35.197 36.403
C 29.297 34.227 37.063
H 29.832 33.328 37.246
H 29.053 34.698 37.983
H 28.426 34.072 36.473
C 27.112 33.039 32.113
H 26.932 34.133 32.148
H 26.678 32.631 33.013
C 26.435 32.573 30.897
H 26.029 31.565 30.999
C 26.29  33.165 29.716
C 27.068 34.463 29.337
H 26.326 35.251 29.169
H 27.742 34.965 30.129
H 27.594 34.277 28.41 
C 25.523 32.49  28.516
H 25.252 31.504 28.812
H 26.328 32.426 27.81 
C 24.327 33.297 27.972
H 24.136 32.952 26.984
H 24.616 34.336 27.837
C 23.089 33.158 28.87 
H 23.122 32.456 29.725
H 22.318 32.692 28.227
C 22.351 34.509 29.234
H 22.294 35.077 28.326
C 23.261 35.417 30.177
H 22.694 36.368 30.421
H 23.264 34.95  31.126
H 24.304 35.654 29.778
C 20.912 34.28  29.733
H 20.315 33.84  28.961
H 20.502 35.276 29.917
C 20.697 33.416 30.978
H 20.283 34.025 31.781
H 21.629 33.021 31.409
C 19.733 32.234 30.795
H 20.357 31.353 30.906
H 19.42  32.227 29.755
C 18.469 32.191 31.742
H 17.881 33.129 31.734
C 18.923 32.164 33.229
H 19.683 32.937 33.481
H 18.048 32.32  33.861
H 19.372 31.216 33.407
C 17.494 30.901 31.534
H 16.687 30.883 32.396
H 18.143 30.017 31.477
C 16.582 31.014 30.208
H 16.749 32.036 29.723
H 15.515 30.996 30.411
C 16.97  29.905 29.139
H 16.201 29.195 29.099
H 17.911 29.468 29.446
C 17.152 30.56  27.703
H 18.066 31.141 27.754
C 15.855 31.283 27.308
H 15.991 31.663 26.259
H 14.819 30.757 27.383
H 15.886 32.248 27.845
C 17.523 29.553 26.654
H 17.697 29.975 25.626
H 18.482 29.165 26.955
H 16.765 28.718 26.745
