137

Mg 26.371 30.64  38.871
C 24.56  27.694 39.318
C 23.422 32.263 38.019
H 22.557 32.883 37.708
C 27.978 33.589 39.039
H 28.63  34.538 39.092
C 29.278 28.988 39.534
H 30.161 28.381 39.66 
N 24.217 30.017 38.714
C 23.699 28.744 38.923
C 22.134 28.686 38.739
H 21.976 27.819 38.042
C 21.822 30.115 38.165
H 21.106 30.535 38.835
C 23.24  30.868 38.311
C 21.306 30.076 36.726
H 20.991 31.032 36.298
H 22.016 29.675 35.983
H 20.43  29.424 36.599
C 21.211 28.392 40.003
H 21.027 29.396 40.516
H 21.803 27.809 40.701
C 19.803 27.777 39.619
H 19.743 27.815 38.527
H 19.897 26.732 39.872
C 18.513 28.325 40.124
O 17.551 27.656 40.497
O 18.424 29.687 39.97 
N 25.825 32.647 38.519
C 24.565 33.062 38.134
C 24.636 34.534 38.016
C 25.961 34.922 38.308
C 26.626 33.708 38.674
C 23.563 35.497 37.547
H 23.94  36.335 36.938
H 22.828 34.822 36.983
H 23.071 35.97  38.353
C 26.67  36.23  38.201
H 27.691 36.119 37.795
C 26.191 37.465 38.483
H 25.26  37.662 38.878
H 26.75  38.329 38.214
N 28.308 31.178 39.27 
C 28.735 32.475 39.325
C 30.196 32.436 39.56 
C 30.539 31.124 39.595
C 29.329 30.39  39.423
C 31.076 33.617 39.696
H 30.688 34.618 40.09 
H 32.06  33.433 40.101
H 31.318 33.858 38.677
C 31.861 30.461 39.746
H 31.93  29.677 39.003
H 32.654 31.183 39.509
C 32.091 29.926 41.226
H 31.21  29.301 41.554
H 32.919 29.259 41.377
H 32.28  30.619 42.035
N 26.913 28.758 39.395
C 28.157 28.219 39.542
C 27.98  26.814 39.771
C 26.547 26.548 39.805
C 25.963 27.773 39.511
C 29.064 25.841 40.115
H 29.114 25.662 41.195
H 28.76  24.912 39.62 
H 30.059 26.032 39.832
C 25.577 25.522 40.05 
O 25.6   24.318 40.336
C 24.222 26.24  39.7  
H 23.578 26.292 40.566
C 23.633 25.35  38.661
O 23.919 25.245 37.463
O 22.476 24.838 39.182
C 21.472 24.256 38.34 
H 21.947 23.763 37.499
H 20.913 23.549 38.941
H 20.793 25.097 38.046
C 17.092 30.259 40.073
H 16.751 30.133 41.171
H 16.428 29.757 39.301
C 17.207 31.733 39.791
H 17.752 31.937 38.865
C 16.9   32.837 40.495
C 16.115 32.812 41.782
H 15.454 31.929 41.73 
H 16.725 32.619 42.654
H 15.582 33.619 42.035
C 17.21  34.197 39.926
H 17.792 34.166 39.054
H 17.874 34.626 40.648
C 16.045 35.103 39.548
H 16.249 35.958 40.158
H 15.087 34.729 39.908
C 15.907 35.47  38.078
H 14.822 35.51  37.883
H 16.341 34.633 37.471
C 16.557 36.792 37.693
H 16.096 37.591 38.265
C 16.218 37.235 36.241
H 16.877 38.009 35.878
H 16.216 36.421 35.564
H 15.222 37.681 36.304
C 18.054 36.809 37.871
H 18.414 36.568 38.858
H 18.43  37.854 37.754
C 18.88  36.018 36.826
H 18.29  35.37  36.148
H 19.3   35.203 37.437
C 19.931 36.878 36.124
H 20.846 37.062 36.714
H 19.489 37.847 35.92 
C 20.403 36.45  34.728
H 20.58  35.365 34.754
C 21.851 37.065 34.459
H 22.428 36.534 33.679
H 21.593 37.983 34.068
H 22.566 37.171 35.379
C 19.37  36.853 33.628
H 19.29  37.972 33.483
H 18.321 36.532 33.935
C 19.799 36.243 32.31 
H 20.589 35.482 32.416
H 20.076 37.157 31.761
C 18.66  35.384 31.679
H 17.582 35.726 31.943
H 18.765 34.314 32.026
C 18.587 35.213 30.079
H 19.576 35.122 29.69 
C 17.818 36.47  29.439
H 17.753 36.349 28.359
H 16.851 36.515 29.947
H 18.296 37.357 29.72 
C 17.818 33.919 29.603
H 17.86  33.903 28.53 
H 18.497 33.11  29.983
H 16.767 33.845 29.958
