137

Mg 27.218 26.708 44.865
C 23.896 25.743 44.452
C 27.659 26.069 41.562
H 27.901 25.672 40.542
C 30.198 28.002 45.086
H 31.275 28.331 45.235
C 26.477 27.427 48.145
H 26.241 27.689 49.214
N 25.903 25.986 43.184
C 24.59  25.707 43.186
C 24.03  25.216 41.772
H 23.723 24.109 41.824
C 25.27  25.508 40.95 
H 24.949 26.366 40.434
C 26.333 25.913 41.95 
C 25.69  24.338 40.027
H 24.841 23.95  39.428
H 26.428 24.716 39.291
H 26.125 23.57  40.66 
C 22.727 26.039 41.369
H 22.978 27.032 41.171
H 21.96  25.989 42.164
C 21.998 25.636 40.076
H 22.23  24.635 39.776
H 20.956 25.9   40.2  
C 22.312 26.389 38.837
O 23.4   26.629 38.411
O 21.15  26.673 38.138
N 28.648 27.098 43.517
C 28.708 26.624 42.22 
C 30.02  26.844 41.662
C 30.885 27.2   42.745
C 29.875 27.501 43.839
C 30.497 26.546 40.222
H 29.831 26.959 39.43 
H 31.536 26.84  39.924
H 30.6   25.488 40.17 
C 32.346 27.402 42.859
H 32.76  28.192 43.468
C 33.239 26.58  42.236
H 32.986 25.807 41.55 
H 34.286 26.789 42.295
N 28.123 27.716 46.353
C 29.383 28.138 46.234
C 29.818 28.591 47.485
C 28.841 28.341 48.423
C 27.741 27.821 47.655
C 31.143 29.255 47.702
H 31.127 29.996 46.955
H 31.372 29.703 48.656
H 32.007 28.588 47.53 
C 28.873 28.773 49.908
H 28.239 28.088 50.48 
H 29.865 28.697 50.358
C 28.222 30.121 50.241
H 28.378 30.462 51.197
H 28.637 30.922 49.655
H 27.177 29.935 50.026
N 25.616 26.538 46.085
C 25.404 26.866 47.401
C 24.141 26.431 47.81 
C 23.581 25.809 46.77 
C 24.424 26.115 45.631
C 23.629 26.432 49.177
H 24.508 26.361 49.833
H 23.187 27.425 49.351
H 22.948 25.599 49.241
C 22.419 25.16  46.375
O 21.499 24.659 47.021
C 22.622 25.109 44.844
H 21.739 25.624 44.456
C 22.513 23.691 44.489
O 23.433 22.822 44.573
O 21.21  23.457 44.086
C 21.09  22.174 43.478
H 21.355 21.419 44.236
H 20.135 22.175 43.007
H 21.821 22.075 42.658
C 21.236 27.204 36.764
H 21.859 26.473 36.31 
H 21.758 28.163 36.753
C 19.885 27.329 36.144
H 19.402 26.328 35.849
C 19.067 28.352 35.904
C 19.543 29.781 36.   
H 20.141 29.953 35.044
H 18.664 30.4   36.009
H 20.2   30.044 36.827
C 17.589 28.187 35.476
H 17.404 27.217 35.172
H 17.373 28.878 34.697
C 16.59  28.445 36.69 
H 15.795 29.14  36.393
H 17.163 28.918 37.464
C 16.02  27.173 37.364
H 16.427 27.141 38.367
H 16.433 26.372 36.824
C 14.53  27.071 37.237
H 14.102 27.978 37.628
C 13.949 26.038 38.212
H 12.858 26.019 38.397
H 14.333 25.081 37.839
H 14.428 26.055 39.228
C 13.827 26.848 35.932
H 13.857 27.755 35.343
H 12.777 26.825 36.13 
C 14.359 25.687 35.056
H 15.111 25.027 35.448
H 14.911 26.112 34.227
C 13.108 24.887 34.467
H 12.206 25.479 34.483
H 13.127 24.076 35.166
C 13.234 24.476 32.942
H 14.234 24.114 32.801
C 13.053 25.639 31.955
H 12.072 26.071 32.083
H 13.6   26.458 32.384
H 13.286 25.431 30.937
C 12.283 23.278 32.626
H 11.258 23.659 32.655
H 12.176 22.557 33.469
C 12.523 22.475 31.375
H 12.149 21.525 31.769
H 13.632 22.423 31.259
C 11.756 22.929 30.161
H 12.506 23.297 29.5  
H 11.171 23.809 30.483
C 10.918 21.933 29.328
H 10.04  21.701 29.877
C 11.486 20.506 28.997
H 11.829 20.077 29.92 
H 10.943 19.812 28.4  
H 12.386 20.746 28.407
C 10.288 22.551 27.972
H  9.98  21.757 27.295
H  9.45  23.242 28.225
H 11.075 23.132 27.577
