137

Mg 35.767 30.433 35.456
C 32.931 28.278 35.245
C 36.638 29.445 32.401
H 36.739 29.185 31.383
C 38.04  32.91  35.507
H 38.783 33.736 35.605
C 34.878 31.272 38.708
H 34.579 31.695 39.603
N 34.744 29.118 33.952
C 33.655 28.318 34.076
C 33.408 27.581 32.8  
H 33.235 26.573 33.07 
C 34.748 27.764 32.034
H 34.626 28.163 31.073
C 35.451 28.807 32.862
C 35.387 26.262 31.895
H 36.355 26.48  31.422
H 35.631 25.786 32.891
H 34.726 25.601 31.42 
C 32.111 28.175 32.143
H 32.016 29.252 32.322
H 31.243 27.769 32.622
C 31.989 27.922 30.691
H 32.288 28.735 30.133
H 32.593 27.078 30.383
C 30.593 27.691 30.1  
O 29.97  26.646 29.887
O 30.035 28.901 29.694
N 37.198 31.023 34.182
C 37.461 30.442 33.023
C 38.69  30.999 32.479
C 39.064 32.076 33.324
C 38.098 32.047 34.365
C 39.297 30.675 31.128
H 40.312 30.316 31.003
H 38.727 29.828 30.627
H 39.122 31.624 30.604
C 40.242 32.951 33.157
H 40.357 33.425 32.202
C 41.187 33.134 34.125
H 41.15  32.509 35.055
H 42.083 33.74  33.984
N 36.362 31.828 36.879
C 37.256 32.798 36.669
C 37.413 33.713 37.839
C 36.472 33.341 38.74 
C 35.829 32.125 38.117
C 38.532 34.8   37.974
H 39.502 34.397 37.843
H 38.302 35.503 37.24 
H 38.421 35.388 38.903
C 36.252 33.859 40.155
H 36.147 32.951 40.892
H 37.087 34.494 40.524
C 34.937 34.625 40.227
H 34.472 34.712 41.261
H 35.186 35.623 39.966
H 34.203 34.135 39.51 
N 34.208 29.91  36.772
C 33.991 30.326 38.041
C 32.777 29.725 38.539
C 32.375 28.935 37.438
C 33.259 29.049 36.421
C 32.01  29.8   39.837
H 31.957 30.871 40.056
H 30.985 29.445 39.814
H 32.507 29.166 40.558
C 31.338 27.96  37.051
O 30.409 27.466 37.662
C 31.67  27.492 35.619
H 30.811 27.784 34.952
C 31.842 25.986 35.827
O 32.599 25.438 36.589
O 30.992 25.407 34.972
C 31.121 23.96  34.739
H 32.109 23.87  34.291
H 31.314 23.376 35.676
H 30.239 23.572 34.13 
C 28.814 28.837 28.946
H 28.047 28.474 29.593
H 28.849 28.154 28.094
C 28.359 30.151 28.398
H 28.945 30.508 27.541
C 27.489 31.004 29.018
C 26.641 30.683 30.27 
H 26.577 31.53  30.915
H 25.622 30.428 29.981
H 27.036 29.919 30.941
C 27.281 32.383 28.493
H 28.032 32.553 27.709
H 27.338 33.17  29.267
C 25.924 32.506 27.814
H 25.403 31.582 27.657
H 26.162 32.952 26.851
C 24.816 33.318 28.667
H 25.179 33.769 29.587
H 24.142 32.459 28.957
C 24.087 34.392 27.769
H 23.795 33.93  26.824
C 24.949 35.625 27.255
H 25.387 36.215 28.099
H 25.781 35.161 26.707
H 24.444 36.222 26.484
C 22.89  35.068 28.455
H 22.625 35.904 27.835
H 23.358 35.348 29.412
C 21.617 34.156 28.597
H 21.735 33.225 28.15 
H 20.723 34.613 28.138
C 21.284 34.017 30.11 
H 20.34  34.615 30.229
H 22.101 34.375 30.753
C 21.015 32.53  30.73 
H 21.682 31.807 30.396
C 19.627 31.999 30.296
H 19.332 32.222 29.242
H 19.42  30.901 30.544
H 18.852 32.553 30.898
C 21.144 32.464 32.264
H 20.839 31.492 32.659
H 20.428 33.269 32.524
C 22.558 32.784 32.785
H 22.722 33.802 33.102
H 23.276 32.601 31.995
C 22.861 31.795 33.927
H 21.962 31.406 34.376
H 23.183 32.502 34.758
C 23.963 30.69  33.575
H 24.913 31.17  33.221
C 23.538 29.763 32.376
H 23.656 30.218 31.318
H 24.257 28.948 32.402
H 22.479 29.48  32.5  
C 24.244 29.799 34.831
H 23.281 29.35  35.168
H 25.018 29.022 34.6  
H 24.655 30.458 35.591
