137

Mg 36.924 34.452 34.579
C 33.513 34.6   35.013
C 36.604 31.538 32.887
H 36.516 30.514 32.416
C 40.119 34.79  33.564
H 41.108 34.972 33.08 
C 37.151 37.573 36.088
H 37.236 38.493 36.606
N 35.301 33.178 34.048
C 33.965 33.403 34.363
C 33.08  32.208 34.035
H 32.686 31.844 35.016
C 34.086 31.137 33.473
H 33.854 30.994 32.408
C 35.415 31.935 33.528
C 34.098 29.862 34.31 
H 34.323 30.002 35.357
H 33.194 29.249 34.328
H 34.847 29.204 33.964
C 31.992 32.649 33.02 
H 32.317 32.462 31.966
H 32.028 33.731 33.078
C 30.563 32.103 33.17 
H 30.419 31.222 32.48 
H 30.687 31.646 34.153
C 29.425 33.055 32.954
O 29.556 34.186 32.502
O 28.222 32.439 33.113
N 38.24  33.244 33.49 
C 37.903 32.117 32.822
C 39.067 31.639 32.083
C 40.096 32.536 32.355
C 39.496 33.62  33.138
C 39.061 30.44  31.227
H 39.981 30.37  30.592
H 38.812 29.527 31.848
H 38.267 30.55  30.533
C 41.519 32.49  31.937
H 42.171 32.697 32.708
C 41.967 32.105 30.725
H 41.25  31.842 29.907
H 43.021 31.95  30.492
N 38.379 35.9   34.851
C 39.615 35.839 34.371
C 40.384 37.06  34.784
C 39.546 37.806 35.561
C 38.273 37.115 35.515
C 41.802 37.265 34.394
H 42.3   36.34  34.102
H 41.941 38.044 33.665
H 42.361 37.693 35.214
C 39.816 39.1   36.123
H 39.388 39.134 37.127
H 40.922 39.072 36.174
C 39.142 40.213 35.283
H 39.473 41.172 35.725
H 39.628 40.21  34.301
H 38.075 40.082 35.174
N 35.683 35.756 35.39 
C 35.913 36.935 36.007
C 34.688 37.483 36.616
C 33.705 36.526 36.222
C 34.381 35.553 35.476
C 34.638 38.593 37.462
H 35.374 38.371 38.217
H 35.004 39.406 36.854
H 33.673 38.683 37.885
C 32.296 36.202 36.308
O 31.326 36.773 36.725
C 32.171 34.993 35.535
H 31.571 35.196 34.705
C 31.618 34.014 36.485
O 32.141 33.691 37.551
O 30.435 33.467 36.094
C 29.917 32.401 36.935
H 29.001 32.042 36.473
H 30.667 31.669 37.034
H 29.666 32.885 37.883
C 27.011 33.128 32.646
H 27.127 33.599 31.715
H 26.802 33.973 33.35 
C 25.76  32.243 32.643
H 25.238 31.998 33.595
C 25.216 31.797 31.524
C 25.782 31.977 30.133
H 26.73  32.61  30.052
H 26.016 31.025 29.686
H 24.96  32.345 29.545
C 23.877 30.989 31.534
H 23.769 30.572 32.516
H 24.019 30.154 30.901
C 22.61  31.669 30.933
H 22.3   31.174 30.008
H 22.849 32.642 30.571
C 21.495 31.772 31.969
H 21.682 31.117 32.788
H 20.653 31.403 31.403
C 21.307 33.184 32.616
H 21.414 33.856 31.743
C 22.441 33.512 33.681
H 21.863 34.274 34.285
H 22.687 32.664 34.381
H 23.345 33.907 33.286
C 19.915 33.345 33.104
H 19.331 33.253 32.157
H 19.708 34.298 33.531
C 19.458 32.453 34.231
H 18.947 33.14  34.92 
H 20.264 31.846 34.653
C 18.349 31.438 33.819
H 18.716 30.468 33.759
H 17.936 31.74  32.785
C 17.013 31.48  34.656
H 16.549 32.427 34.665
C 17.248 31.452 36.214
H 17.967 30.652 36.418
H 17.711 32.414 36.566
H 16.302 31.303 36.73 
C 15.988 30.415 34.219
H 15.344 30.333 35.105
H 16.566 29.459 34.057
C 15.359 30.676 32.828
H 16.094 30.982 32.119
H 14.658 31.443 33.061
C 14.504 29.485 32.325
H 13.438 29.773 32.166
H 14.406 28.762 33.125
C 15.053 28.835 31.076
H 16.135 28.63  31.332
C 14.957 29.688 29.74 
H 14.985 29.024 28.863
H 14.012 30.192 29.74 
H 15.671 30.568 29.681
C 14.378 27.451 30.869
H 14.83  27.058 29.935
H 14.634 26.769 31.621
H 13.283 27.506 30.739
