137

Mg 20.15  26.151 29.881
C 23.255 24.709 30.461
C 20.673 28.195 32.512
H 20.776 28.911 33.319
C 17.229 27.778 29.312
H 16.328 28.239 29.023
C 19.497 23.872 27.376
H 19.36  23.2   26.585
N 21.873 26.518 31.186
C 23.012 25.793 31.286
C 24.005 26.354 32.417
H 24.189 25.638 33.19 
C 23.066 27.396 33.05 
H 23.433 28.416 32.829
C 21.77  27.333 32.278
C 22.887 27.115 34.635
H 23.832 27.279 35.23 
H 22.156 27.766 35.006
H 22.649 26.036 34.822
C 25.286 26.964 31.775
H 24.894 27.749 31.14 
H 25.687 26.228 31.08 
C 26.414 27.484 32.723
H 26.3   27.115 33.797
H 27.407 27.161 32.35 
C 26.548 29.028 32.77 
O 27.428 29.65  33.295
O 25.475 29.631 32.239
N 19.084 27.701 30.794
C 19.488 28.425 31.822
C 18.526 29.512 32.088
C 17.566 29.409 31.098
C 17.954 28.297 30.358
C 18.608 30.463 33.262
H 19.088 31.321 32.777
H 17.746 30.915 33.659
H 19.209 30.068 33.973
C 16.401 30.264 30.713
H 15.531 29.832 30.19 
C 16.316 31.618 30.922
H 17.21  32.162 31.339
H 15.424 32.237 30.616
N 18.532 25.755 28.625
C 17.454 26.604 28.497
C 16.638 26.055 27.437
C 17.285 24.956 26.905
C 18.512 24.816 27.637
C 15.343 26.646 27.116
H 14.737 26.061 26.351
H 14.731 26.809 28.068
H 15.517 27.587 26.594
C 16.835 24.119 25.76 
H 16.014 24.641 25.2  
H 17.701 23.783 25.133
C 16.457 22.755 26.428
H 15.927 22.159 25.654
H 17.349 22.226 26.857
H 15.645 22.891 27.136
N 21.045 24.525 29.118
C 20.762 23.777 28.013
C 21.785 22.774 27.836
C 22.739 23.063 28.738
C 22.301 24.185 29.521
C 21.761 21.649 26.844
H 21.094 21.899 25.993
H 22.794 21.375 26.565
H 21.201 20.807 27.273
C 24.055 22.66  29.134
O 24.795 21.716 28.787
C 24.42  23.693 30.348
H 25.439 24.041 30.21 
C 24.462 22.753 31.498
O 23.518 22.036 31.896
O 25.553 23.044 32.277
C 25.511 22.388 33.59 
H 26.497 22.525 34.036
H 24.712 22.852 34.171
H 25.215 21.384 33.55 
C 25.37  31.109 32.47 
H 26.255 31.645 32.008
H 25.161 31.491 33.503
C 24.129 31.547 31.75 
H 23.264 30.92  31.974
C 23.988 32.526 30.814
C 25.04  33.414 30.14 
H 25.946 33.476 30.708
H 25.185 33.019 29.117
H 24.74  34.474 30.181
C 22.573 32.76  30.186
H 21.968 31.911 30.355
H 22.628 32.918 29.116
C 21.999 33.971 30.911
H 22.706 34.259 31.666
H 21.048 33.708 31.439
C 21.703 35.11  29.944
H 22.217 34.963 28.972
H 22.04  36.056 30.389
C 20.171 35.433 29.583
H 19.62  35.032 30.408
C 19.733 34.527 28.331
H 20.252 33.548 28.444
H 18.607 34.431 28.462
H 19.944 34.966 27.371
C 19.871 36.957 29.263
H 18.853 37.101 28.919
H 20.474 37.147 28.386
C 20.253 38.051 30.321
H 21.193 38.554 30.045
H 20.355 37.546 31.301
C 19.181 39.138 30.514
H 18.72  38.996 31.516
H 18.452 39.047 29.763
C 19.71  40.597 30.557
H 20.519 40.636 29.808
C 20.267 40.826 31.999
H 19.41  40.886 32.695
H 20.992 39.987 32.293
H 20.908 41.682 32.138
C 18.824 41.809 30.09 
H 18.184 42.012 30.978
H 18.063 41.327 29.423
C 19.363 43.124 29.557
H 18.701 43.494 28.733
H 20.411 42.837 29.244
C 19.291 44.231 30.577
H 19.2   43.762 31.603
H 18.45  44.967 30.397
C 20.485 45.142 30.539
H 21.26  44.481 30.969
C 20.222 46.291 31.591
H 20.984 46.99  31.662
H 19.401 46.951 31.23 
H 20.014 45.869 32.575
C 20.937 45.742 29.089
H 20.124 46.275 28.717
H 21.682 46.532 29.182
H 21.292 45.015 28.448
