137

Mg 22.763 19.008 28.546
C 22.847 19.072 25.138
C 25.793 20.314 28.739
H 26.842 20.55  28.847
C 22.472 19.03  32.022
H 22.357 19.046 33.072
C 19.455 17.74  28.335
H 18.44  17.344 28.244
N 24.195 19.614 27.098
C 24.037 19.63  25.715
C 25.294 20.209 24.901
H 25.791 19.362 24.365
C 26.186 20.571 26.094
H 26.374 21.649 26.082
C 25.368 20.126 27.402
C 27.58  19.876 26.012
H 27.665 18.851 25.913
H 28.067 20.307 25.141
H 28.12  20.086 26.931
C 24.842 21.416 24.107
H 24.425 22.164 24.805
H 23.996 21.165 23.431
C 25.84  21.998 23.091
H 26.731 21.404 23.226
H 25.459 21.801 22.079
C 26.115 23.461 23.275
O 27.133 23.955 23.808
O 25.186 24.206 22.704
N 23.942 19.599 30.154
C 25.203 20.083 30.033
C 25.747 20.549 31.333
C 24.911 20.058 32.29 
C 23.69  19.478 31.463
C 26.971 21.412 31.402
H 27.859 20.879 30.892
H 26.799 22.31  30.918
H 27.217 21.769 32.365
C 24.888 20.242 33.723
H 24.465 19.453 34.254
C 25.345 21.283 34.409
H 25.649 22.146 33.901
H 25.379 21.432 35.507
N 21.193 18.489 29.938
C 21.32  18.555 31.335
C 20.034 18.197 31.941
C 19.178 17.771 30.893
C 19.943 17.974 29.676
C 19.899 18.086 33.483
H 18.998 17.461 33.748
H 20.82  17.591 33.943
H 19.822 19.134 33.901
C 17.74  17.385 31.025
H 17.427 16.819 30.104
H 17.52  16.841 31.889
C 17.034 18.75  31.113
H 17.538 19.377 31.887
H 17.177 19.331 30.258
H 15.964 18.727 31.319
N 21.4   18.429 27.093
C 20.072 17.998 27.175
C 19.626 17.784 25.812
C 20.684 18.177 25.002
C 21.787 18.555 25.827
C 18.263 17.342 25.284
H 18.016 16.383 25.698
H 17.507 18.142 25.399
H 18.472 17.154 24.25 
C 21.073 18.241 23.672
O 20.601 17.859 22.559
C 22.472 18.818 23.618
H 22.481 19.602 22.882
C 23.255 17.703 23.038
O 23.543 16.693 23.688
O 23.828 18.053 21.785
C 24.732 17.025 21.301
H 25.567 16.921 22.003
H 24.075 16.175 21.257
H 25.076 17.245 20.328
C 25.381 25.655 22.763
H 26.032 26.056 21.988
H 25.828 25.841 23.786
C 23.926 26.199 22.642
H 23.034 25.661 23.021
C 23.556 27.393 22.105
C 24.572 28.365 21.544
H 24.368 28.601 20.508
H 24.523 29.337 21.972
H 25.597 28.028 21.703
C 22.037 27.808 22.026
H 21.408 27.034 22.279
H 21.728 27.893 21.006
C 21.69  28.975 22.885
H 21.395 29.719 22.225
H 22.592 29.355 23.189
C 20.827 28.713 24.106
H 20.667 27.612 24.272
H 19.819 29.177 23.839
C 21.425 29.238 25.489
H 21.82  30.217 25.483
C 22.671 28.438 25.995
H 23.07  28.6   26.974
H 22.424 27.397 25.955
H 23.524 28.708 25.313
C 20.357 29.264 26.589
H 20.808 29.237 27.555
H 19.863 28.259 26.562
C 19.16  30.302 26.461
H 18.245 29.703 26.507
H 19.253 30.764 25.513
C 19.205 31.386 27.64 
H 18.941 32.354 27.198
H 20.271 31.498 27.878
C 18.268 31.21  28.89 
H 17.288 31.572 28.536
C 18.675 32.064 30.095
H 19.611 31.694 30.442
H 18.725 33.084 29.727
H 18.021 32.016 30.903
C 18.286 29.696 29.367
H 19.321 29.433 29.704
H 18.011 28.944 28.65 
C 17.177 29.448 30.461
H 16.769 28.496 30.202
H 16.465 30.28  30.429
C 17.878 29.317 31.845
H 18.635 30.123 32.041
H 18.376 28.305 31.829
C 16.844 29.383 33.058
H 16.585 30.406 33.134
C 17.641 29.079 34.325
H 18.581 29.536 34.266
H 17.144 29.166 35.326
H 17.873 27.946 34.328
C 15.673 28.386 32.883
H 15.163 28.383 31.916
H 16.112 27.438 32.977
H 14.895 28.496 33.695
