137

Mg 20.363 26.784 29.758
C 23.251 25.012 30.414
C 21.014 28.696 32.58 
H 21.218 29.243 33.487
C 17.635 28.71  29.182
H 16.772 29.374 28.984
C 19.414 24.565 27.262
H 19.153 23.758 26.512
N 21.897 26.75  31.375
C 23.014 25.969 31.37 
C 23.932 26.335 32.546
H 23.998 25.409 33.115
C 23.092 27.384 33.385
H 23.67  28.317 33.387
C 21.896 27.628 32.425
C 22.728 27.041 34.823
H 23.562 26.508 35.327
H 22.373 27.941 35.331
H 21.85  26.394 34.839
C 25.326 26.85  32.064
H 25.095 27.7   31.51 
H 25.756 26.094 31.453
C 26.322 27.385 33.103
H 26.161 26.7   33.981
H 27.325 27.251 32.65 
C 26.298 28.851 33.51 
O 26.577 29.274 34.646
O 25.694 29.671 32.527
N 19.582 28.537 30.654
C 19.959 29.183 31.764
C 19.276 30.447 31.857
C 18.275 30.421 30.932
C 18.434 29.131 30.21 
C 19.611 31.39  33.032
H 19.608 32.343 32.597
H 18.918 31.379 33.919
H 20.597 31.257 33.581
C 17.106 31.345 30.726
H 16.149 30.94  30.329
C 16.928 32.599 31.281
H 17.726 33.135 31.865
H 15.959 33.188 31.169
N 18.758 26.615 28.511
C 17.815 27.558 28.376
C 16.951 27.27  27.212
C 17.435 26.068 26.71 
C 18.596 25.682 27.529
C 15.876 28.258 26.777
H 15.035 28.231 27.453
H 16.204 29.274 26.647
H 15.483 28.049 25.773
C 16.881 25.253 25.576
H 16.312 25.816 24.872
H 17.73  24.925 24.966
C 16.21  23.896 26.069
H 15.975 23.336 25.17 
H 16.824 23.375 26.85 
H 15.256 24.133 26.558
N 21.1   25.187 29.019
C 20.669 24.377 27.964
C 21.651 23.396 27.688
C 22.677 23.608 28.606
C 22.249 24.673 29.401
C 21.599 22.347 26.71 
H 22.528 21.834 26.815
H 20.896 21.657 27.072
H 21.231 22.623 25.751
C 23.962 23.109 29.084
O 24.528 22.11  28.667
C 24.406 23.986 30.226
H 25.352 24.479 29.839
C 24.725 23.144 31.464
O 23.953 22.811 32.369
O 26.07  22.795 31.445
C 26.448 21.953 32.568
H 27.521 21.967 32.852
H 25.914 22.376 33.469
H 26.162 20.872 32.503
C 25.384 31.031 32.928
H 26.266 31.637 32.754
H 25.119 31.063 34.014
C 24.197 31.674 32.258
H 23.381 30.96  32.221
C 24.075 32.849 31.632
C 25.195 33.845 31.466
H 24.814 34.689 30.867
H 25.322 34.204 32.497
H 26.145 33.532 31.033
C 22.776 33.27  30.871
H 22.099 32.45  30.994
H 22.914 33.474 29.794
C 22.092 34.515 31.445
H 22.621 35.035 32.244
H 21.16  34.153 31.928
C 21.758 35.483 30.349
H 22.087 35.169 29.336
H 22.301 36.377 30.685
C 20.258 35.797 30.136
H 19.752 35.956 31.081
C 19.513 34.632 29.505
H 19.605 33.738 30.107
H 18.45  34.892 29.396
H 20.036 34.499 28.54 
C 19.988 37.122 29.277
H 18.927 37.188 28.942
H 20.445 36.991 28.279
C 20.364 38.432 29.886
H 21.307 38.825 29.573
H 20.593 38.234 30.959
C 19.319 39.6   29.815
H 18.98  39.73  30.824
H 18.408 39.394 29.175
C 19.928 40.979 29.529
H 20.643 40.808 28.744
C 20.654 41.556 30.804
H 19.942 41.861 31.526
H 21.453 40.867 31.158
H 21.064 42.49  30.362
C 18.752 41.994 29.106
H 17.926 41.803 29.798
H 18.226 41.759 28.13 
C 19.185 43.479 29.015
H 18.736 43.94  28.103
H 20.265 43.733 29.042
C 18.439 44.338 30.061
H 17.784 43.76  30.771
H 17.756 45.023 29.577
C 19.384 45.381 30.875
H 19.985 44.742 31.445
C 18.568 46.244 31.875
H 19.115 46.939 32.494
H 17.92  46.911 31.245
H 18.019 45.499 32.486
C 20.341 46.337 30.048
H 19.747 46.831 29.328
H 20.703 47.032 30.835
H 21.142 45.769 29.55 
