137

Mg 27.811 29.89  32.346
C 26.993 26.733 31.362
C 29.393 30.408 29.231
H 29.862 30.555 28.263
C 29.053 32.925 33.427
H 29.178 33.948 33.766
C 26.683 29.237 35.528
H 26.237 29.021 36.503
N 28.18  28.664 30.494
C 27.756 27.358 30.331
C 28.241 26.821 28.972
H 28.953 26.091 29.254
C 29.011 27.993 28.363
H 28.577 28.319 27.416
C 28.835 29.112 29.377
C 30.473 27.735 27.952
H 30.967 27.581 28.964
H 30.595 26.916 27.239
H 30.892 28.616 27.51 
C 27.184 26.119 28.098
H 26.458 26.834 27.691
H 26.601 25.469 28.728
C 27.632 25.356 26.887
H 27.136 25.713 26.044
H 28.724 25.482 26.782
C 27.214 23.899 26.785
O 28.003 23.012 26.481
O 25.906 23.709 27.103
N 28.993 31.387 31.494
C 29.374 31.488 30.184
C 29.897 32.781 29.905
C 29.906 33.515 31.105
C 29.286 32.611 32.076
C 30.422 33.23  28.588
H 30.009 32.671 27.767
H 30.182 34.27  28.333
H 31.485 33.234 28.593
C 30.444 34.837 31.472
H 30.886 34.989 32.459
C 30.348 35.917 30.732
H 30.12  35.964 29.666
H 30.748 36.854 31.087
N 27.886 30.914 34.211
C 28.459 32.141 34.429
C 28.171 32.545 35.811
C 27.443 31.482 36.44 
C 27.297 30.447 35.327
C 28.702 33.874 36.27 
H 28.908 33.76  37.302
H 29.72  34.085 35.975
H 27.934 34.622 36.192
C 26.567 31.522 37.649
H 25.552 31.437 37.282
H 26.778 30.696 38.366
C 26.726 32.724 38.547
H 27.809 32.715 38.822
H 26.42  33.588 37.958
H 26.141 32.615 39.474
N 26.889 28.334 33.262
C 26.553 28.164 34.581
C 25.981 26.857 34.754
C 26.162 26.229 33.521
C 26.702 27.167 32.648
C 25.431 26.416 36.102
H 25.471 25.411 35.967
H 25.906 26.706 37.019
H 24.392 26.668 36.193
C 25.865 25.003 32.754
O 25.198 24.026 33.093
C 26.54  25.288 31.394
H 25.727 25.144 30.722
C 27.678 24.37  31.245
O 28.85  24.596 31.487
O 27.18  23.278 30.566
C 28.177 22.494 29.844
H 28.803 22.081 30.57 
H 27.59  21.733 29.309
H 28.717 23.139 29.175
C 25.566 22.325 26.824
H 26.019 21.655 27.56 
H 25.961 21.978 25.9  
C 24.093 22.207 26.683
H 23.685 23.088 26.137
C 23.22  21.286 27.169
C 23.706 20.04  27.921
H 23.89  19.035 27.416
H 24.512 20.202 28.621
H 22.862 19.787 28.618
C 21.752 21.408 26.868
H 21.675 22.262 26.214
H 21.383 21.593 27.869
C 21.019 20.132 26.343
H 20.732 19.405 27.079
H 21.751 19.552 25.73 
C 19.792 20.462 25.485
H 20.193 20.525 24.5  
H 19.448 21.542 25.727
C 18.628 19.375 25.538
H 19.138 18.459 25.4  
C 17.651 19.503 24.341
H 17.702 18.664 23.722
H 16.656 19.622 24.715
H 17.899 20.45  23.892
C 17.982 19.31  26.916
H 18.756 19.293 27.694
H 17.381 18.409 26.927
C 17.116 20.509 27.335
H 16.184 20.199 27.606
H 17.003 21.24  26.49 
C 17.66  21.388 28.474
H 17.981 22.38  28.065
H 18.587 21.084 29.004
C 16.717 21.742 29.642
H 15.761 22.058 29.297
C 17.27  22.922 30.447
H 18.254 22.699 30.814
H 17.28  23.813 29.827
H 16.517 23.111 31.217
C 16.421 20.531 30.58 
H 17.283 20.543 31.246
H 16.312 19.697 29.873
C 15.076 20.626 31.311
H 14.33  19.983 30.785
H 14.74  21.628 31.279
C 15.136 20.082 32.722
H 16.132 19.757 32.96 
H 14.556 19.132 32.6  
C 14.46  20.943 33.912
H 15.223 21.634 34.071
C 14.304 20.206 35.226
H 14.352 20.932 35.987
H 13.269 19.822 35.27 
H 14.992 19.363 35.372
C 13.152 21.599 33.66 
H 12.387 20.886 33.248
H 12.725 22.056 34.521
H 13.302 22.366 32.916
