137

Mg 36.147 35.512 34.604
C 32.939 34.506 34.724
C 36.627 33.359 31.997
H 36.857 32.708 31.161
C 39.386 36.738 34.261
H 40.38  37.187 34.039
C 35.416 38.076 36.879
H 35.124 38.791 37.683
N 34.931 34.1   33.511
C 33.619 33.878 33.672
C 33.044 32.723 32.839
H 32.719 32.011 33.608
C 34.28  32.355 32.103
H 34.065 32.408 31.032
C 35.332 33.397 32.509
C 34.696 30.857 32.369
H 33.855 30.198 32.069
H 35.543 30.622 31.675
H 34.955 30.649 33.401
C 31.825 33.249 31.947
H 32.129 33.36  30.955
H 31.599 34.274 32.183
C 30.432 32.441 32.127
H 30.2   31.903 31.26 
H 30.394 31.751 33.013
C 29.224 33.251 32.451
O 29.171 34.451 32.28 
O 28.215 32.506 32.988
N 37.736 35.122 33.404
C 37.771 34.14  32.391
C 39.053 34.14  31.797
C 39.849 34.995 32.504
C 38.956 35.7   33.425
C 39.43  32.974 30.859
H 39.168 32.032 31.239
H 38.776 33.013 29.916
H 40.539 32.945 30.634
C 41.266 35.279 32.358
H 41.815 35.496 33.319
C 41.957 35.403 31.199
H 41.448 35.309 30.244
H 43.024 35.532 31.173
N 37.185 37.15  35.461
C 38.491 37.457 35.194
C 38.853 38.726 35.873
C 37.721 39.029 36.67 
C 36.713 38.059 36.339
C 40.124 39.48  35.841
H 40.764 39.002 35.134
H 39.874 40.466 35.487
H 40.522 39.581 36.871
C 37.488 40.259 37.6  
H 37.157 39.951 38.583
H 38.411 40.919 37.7  
C 36.428 41.21  36.996
H 36.434 42.132 37.602
H 36.731 41.453 36.049
H 35.432 40.777 36.78 
N 34.608 36.136 35.68 
C 34.421 37.119 36.6  
C 33.096 37.079 37.111
C 32.435 36.064 36.451
C 33.476 35.472 35.576
C 32.444 38.144 38.037
H 33.05  38.422 38.885
H 32.294 39.041 37.492
H 31.491 37.803 38.385
C 31.212 35.35  36.286
O 30.072 35.537 36.774
C 31.569 34.177 35.232
H 30.717 34.293 34.519
C 31.454 32.898 35.947
O 32.312 32.462 36.698
O 30.247 32.292 35.678
C 30.251 30.897 36.156
H 29.402 30.421 35.664
H 31.157 30.36  35.733
H 30.047 30.833 37.23 
C 27.227 33.276 33.579
H 26.883 34.034 32.783
H 27.667 33.777 34.455
C 26.132 32.238 34.016
H 26.463 31.442 34.59 
C 24.833 32.24  33.724
C 24.071 33.299 32.945
H 23.964 32.987 31.912
H 23.139 33.479 33.436
H 24.653 34.222 32.925
C 23.941 31.208 34.386
H 24.434 30.297 34.733
H 23.243 30.788 33.677
C 23.124 31.74  35.581
H 23.343 32.832 35.655
H 23.377 31.211 36.529
C 21.568 31.634 35.522
H 21.264 30.922 36.366
H 21.425 31.183 34.572
C 20.756 32.936 35.446
H 21.312 33.489 34.66 
C 20.547 33.655 36.749
H 19.872 34.461 36.553
H 20.087 33.203 37.614
H 21.494 34.14  37.098
C 19.315 32.627 34.912
H 19.397 32.136 33.963
H 18.931 33.617 34.683
C 18.285 31.854 35.779
H 17.591 32.599 36.24 
H 18.869 31.385 36.58 
C 17.352 30.879 34.961
H 17.569 31.046 33.918
H 16.279 31.16  35.109
C 17.58  29.406 35.359
H 17.369 29.269 36.396
C 19.119 28.907 35.292
H 19.828 29.327 35.988
H 19.251 27.899 35.638
H 19.517 29.022 34.308
C 16.67  28.445 34.468
H 16.891 27.38  34.843
H 16.861 28.578 33.45 
C 15.068 28.587 34.527
H 14.691 29.16  33.668
H 14.904 29.171 35.437
C 14.334 27.228 34.524
H 13.686 27.311 35.338
H 15.107 26.466 34.67 
C 13.472 26.873 33.294
H 14.053 26.628 32.42 
C 12.403 28.028 33.036
H 11.825 27.766 32.172
H 11.681 28.126 33.796
H 12.797 29.061 33.046
C 12.656 25.671 33.514
H 12.005 25.462 32.663
H 13.182 24.772 33.786
H 11.907 25.914 34.285
