137

Mg 20.344 26.539 32.454
C 21.401 23.97  34.539
C 17.585 26.932 34.496
H 16.72  27.004 35.239
C 19.014 28.673 30.166
H 18.538 29.36  29.455
C 22.997 25.928 30.349
H 23.787 25.797 29.663
N 19.706 25.69  34.391
C 20.234 24.559 34.969
C 19.438 24.041 36.214
H 19.024 23.024 36.088
C 18.211 24.942 36.005
H 18.029 25.477 36.918
C 18.518 25.921 34.881
C 16.895 24.141 35.854
H 17.046 23.45  35.024
H 16.67  23.541 36.815
H 16.112 24.879 35.639
C 20.183 24.233 37.588
H 20.612 25.197 37.696
H 21.03  23.486 37.7  
C 19.4   24.01  38.962
H 18.388 23.672 38.891
H 19.931 23.166 39.394
C 19.477 25.181 39.904
O 20.519 25.467 40.489
O 18.469 26.107 39.664
N 18.589 27.627 32.402
C 17.585 27.678 33.343
C 16.559 28.607 32.917
C 16.966 29.084 31.643
C 18.208 28.384 31.311
C 15.482 29.05  33.815
H 14.857 29.783 33.392
H 14.774 28.223 33.849
H 15.938 29.413 34.791
C 16.333 30.022 30.658
H 16.924 30.703 30.075
C 15.014 30.039 30.519
H 14.283 29.41  31.181
H 14.562 30.704 29.741
N 20.919 27.191 30.57 
C 20.255 28.112 29.793
C 20.925 28.38  28.529
C 22.139 27.635 28.585
C 22.062 26.881 29.904
C 20.411 29.272 27.471
H 19.897 28.633 26.746
H 19.831 30.051 27.859
H 21.28  29.73  26.947
C 23.164 27.472 27.49 
H 23.518 26.468 27.44 
H 22.618 27.754 26.545
C 24.363 28.493 27.859
H 24.707 28.31  28.834
H 25.181 28.45  27.144
H 23.919 29.477 27.86 
N 22.07  25.415 32.44 
C 23.002 25.168 31.502
C 23.914 24.093 32.014
C 23.352 23.668 33.186
C 22.196 24.442 33.379
C 25.119 23.576 31.383
H 25.117 23.55  30.326
H 25.908 24.272 31.453
H 25.383 22.619 31.825
C 23.463 22.683 34.289
O 24.319 21.848 34.613
C 22.25  22.827 35.091
H 22.637 23.034 36.086
C 21.604 21.477 35.087
O 21.148 20.885 34.163
O 21.359 21.164 36.365
C 20.583 19.951 36.625
H 20.7   19.653 37.673
H 19.534 20.094 36.468
H 20.965 19.052 36.139
C 18.591 27.372 40.303
H 19.473 27.896 39.897
H 18.742 27.12  41.348
C 17.385 28.171 39.982
H 16.614 28.118 40.735
C 17.049 28.834 38.804
C 17.799 28.867 37.504
H 18.342 29.782 37.516
H 18.465 27.939 37.354
H 17.091 28.83  36.718
C 15.766 29.688 38.814
H 15.368 29.739 39.832
H 15.106 29.074 38.229
C 15.753 31.125 38.325
H 16.754 31.378 38.08 
H 15.376 31.843 39.08 
C 14.937 31.297 37.017
H 14.411 30.393 36.605
H 15.691 31.506 36.282
C 13.988 32.522 36.984
H 14.651 33.429 37.064
C 12.905 32.392 38.137
H 12.311 33.293 38.09 
H 12.373 31.49  37.879
H 13.311 32.327 39.1  
C 13.274 32.753 35.643
H 12.538 33.606 35.706
H 12.656 31.893 35.491
C 14.129 32.733 34.363
H 13.852 31.899 33.679
H 15.214 32.569 34.393
C 13.794 33.881 33.364
H 13.207 34.697 33.825
H 13.128 33.528 32.523
C 15.036 34.631 32.872
H 15.832 33.965 32.654
C 15.598 35.569 34.021
H 16.632 35.773 33.791
H 15.049 36.537 34.122
H 15.544 35.088 34.936
C 14.577 35.395 31.603
H 15.373 36.176 31.52 
H 13.64  36.038 31.679
C 14.506 34.55  30.305
H 13.485 34.318 30.023
H 14.882 33.557 30.64 
C 15.303 35.113 29.046
H 15.867 34.323 28.585
H 16.015 35.805 29.484
C 14.512 35.775 27.958
H 13.702 35.169 27.617
C 15.478 36.061 26.791
H 14.941 36.72  26.138
H 16.362 36.537 27.143
H 15.797 35.106 26.433
C 13.747 37.079 28.362
H 13.036 37.509 27.66 
H 13.235 36.961 29.331
H 14.479 37.922 28.434
