137

Mg 22.48  25.197 39.656
C 20.236 22.597 40.18 
C 23.312 23.895 36.687
H 23.62  23.433 35.786
C 24.278 28.048 39.062
H 24.788 28.997 38.88 
C 21.729 26.36  42.834
H 21.545 26.841 43.788
N 21.867 23.442 38.581
C 20.852 22.604 38.943
C 20.627 21.573 37.795
H 20.552 20.565 38.132
C 21.87  21.787 36.863
H 21.603 21.828 35.813
C 22.401 23.146 37.38 
C 22.86  20.561 36.972
H 23.054 20.425 38.028
H 22.353 19.671 36.501
H 23.854 20.8   36.46 
C 19.298 21.748 37.061
H 19.317 22.703 36.591
H 18.487 21.623 37.771
C 19.103 20.782 35.932
H 19.737 19.935 36.112
H 18.106 20.42  35.896
C 19.269 21.26  34.502
O 19.515 22.409 34.196
O 19.109 20.225 33.662
N 23.653 25.805 38.222
C 23.878 25.131 37.047
C 24.779 25.871 36.151
C 25.013 27.053 36.834
C 24.297 26.973 38.127
C 25.188 25.381 34.789
H 25.571 24.384 34.768
H 24.271 25.451 34.158
H 26.038 25.974 34.255
C 25.574 28.287 36.308
H 25.959 29.044 37.008
C 25.591 28.657 35.023
H 25.201 28.078 34.145
H 26.086 29.618 34.751
N 22.989 26.89  40.784
C 23.729 27.943 40.377
C 23.85  28.884 41.439
C 23.072 28.497 42.459
C 22.521 27.208 42.054
C 24.606 30.147 41.413
H 25.247 30.02  42.225
H 24.995 30.51  40.475
H 23.857 30.923 41.682
C 22.769 29.341 43.716
H 22.874 28.735 44.613
H 23.279 30.29  43.786
C 21.318 29.699 43.949
H 20.781 28.847 44.281
H 21.259 30.462 44.686
H 21.021 30.111 42.996
N 21.238 24.646 41.136
C 21.084 25.166 42.445
C 20.079 24.367 43.269
C 19.774 23.329 42.345
C 20.455 23.559 41.14 
C 19.543 24.78  44.541
H 20.429 24.9   45.14 
H 18.964 25.703 44.352
H 18.904 24.075 44.988
C 18.851 22.208 42.18 
O 17.888 21.796 42.849
C 19.265 21.664 40.845
H 18.286 21.633 40.339
C 19.827 20.386 40.882
O 20.801 20.075 41.564
O 19.102 19.509 40.109
C 19.578 18.17  40.281
H 20.657 18.085 39.946
H 19.477 17.809 41.313
H 19.007 17.489 39.731
C 19.106 20.73  32.275
H 20.14  21.002 32.042
H 18.444 21.518 32.087
C 18.523 19.618 31.486
H 18.689 18.633 31.983
C 17.977 19.582 30.249
C 17.643 20.808 29.446
H 18.085 20.85  28.425
H 16.572 20.665 29.239
H 17.858 21.773 29.973
C 17.696 18.363 29.535
H 18.235 17.403 29.813
H 17.98  18.479 28.506
C 16.234 17.954 29.763
H 15.754 18.846 30.123
H 16.158 17.248 30.596
C 15.633 17.493 28.42 
H 16.408 16.986 27.848
H 15.325 18.388 27.832
C 14.473 16.57  28.558
H 14.887 15.752 29.067
C 14.125 15.974 27.213
H 13.776 16.787 26.546
H 15.022 15.462 26.743
H 13.341 15.245 27.431
C 13.305 17.015 29.565
H 13.764 17.185 30.508
H 12.668 16.157 29.715
C 12.409 18.163 29.047
H 12.922 18.734 28.246
H 12.252 18.917 29.838
C 10.993 17.818 28.559
H 10.327 18.214 29.377
H 10.8   16.764 28.496
C 10.565 18.52  27.25 
H 11.325 18.355 26.476
C 10.504 20.008 27.36 
H 11.435 20.512 27.585
H 10.003 20.571 26.566
H  9.973 20.134 28.274
C  9.251 17.969 26.632
H  8.976 18.618 25.832
H  8.423 18.039 27.363
C  9.205 16.613 25.874
H 10.167 16.27  25.601
H  8.675 16.658 24.922
C  8.423 15.592 26.72 
H  7.371 15.813 26.456
H  8.643 15.837 27.781
C  8.779 14.082 26.387
H  8.558 13.848 25.391
C  7.93  13.306 27.398
H  8.08  13.5   28.424
H  6.914 13.384 27.089
H  8.234 12.23  27.361
C 10.311 13.752 26.71 
H 10.547 12.692 26.44 
H 11.013 14.264 26.065
H 10.538 14.031 27.794
