137

Mg 36.235 34.82  34.941
C 32.93  34.222 35.634
C 36.166 32.45  32.489
H 36.143 31.679 31.681
C 39.5   35.612 34.127
H 40.476 35.927 33.736
C 36.163 37.656 36.867
H 36.052 38.556 37.425
N 34.715 33.52  34.131
C 33.396 33.406 34.629
C 32.663 32.241 33.952
H 32.54  31.478 34.697
C 33.771 31.597 33.064
H 33.39  31.818 32.087
C 34.998 32.587 33.227
C 34.158 30.133 33.384
H 34.336 29.965 34.423
H 33.324 29.598 32.974
H 35.059 29.868 32.918
C 31.36  32.675 33.187
H 31.248 32.061 32.259
H 31.375 33.68  32.971
C 29.99  32.268 33.771
H 29.635 31.459 33.144
H 30.25  31.769 34.764
C 28.913 33.323 33.947
O 29.082 34.531 33.849
O 27.663 32.734 34.049
N 37.592 34.091 33.653
C 37.399 33.137 32.738
C 38.551 32.976 31.909
C 39.531 33.778 32.512
C 38.902 34.543 33.508
C 38.738 31.998 30.737
H 37.904 32.118 30.047
H 39.718 32.134 30.31 
H 38.62  30.979 31.083
C 40.904 33.882 32.094
H 41.326 34.881 31.84 
C 41.72  32.853 32.024
H 41.343 31.828 32.434
H 42.746 32.922 31.611
N 37.631 36.289 35.604
C 38.916 36.472 35.059
C 39.549 37.689 35.65 
C 38.498 38.27  36.359
C 37.36  37.374 36.301
C 40.918 38.18  35.309
H 41.083 37.88  34.252
H 41.058 39.249 35.495
H 41.638 37.601 35.932
C 38.589 39.703 36.96 
H 38.243 39.66  38.019
H 39.591 40.099 36.809
C 37.593 40.734 36.283
H 37.841 41.8   36.472
H 37.569 40.66  35.2  
H 36.558 40.631 36.758
N 34.815 35.754 36.013
C 34.986 36.851 36.815
C 33.765 37.1   37.559
C 32.928 36.051 37.267
C 33.61  35.332 36.236
C 33.499 38.232 38.538
H 34.248 38.199 39.396
H 33.56  39.15  37.972
H 32.467 38.135 38.865
C 31.656 35.371 37.375
O 30.648 35.711 38.032
C 31.634 34.191 36.376
H 30.898 34.214 35.566
C 31.443 32.965 37.215
O 32.266 32.087 37.395
O 30.168 33.004 37.78 
C 29.929 31.821 38.568
H 28.862 31.748 38.733
H 30.204 30.918 38.057
H 30.565 31.927 39.438
C 26.589 33.762 34.038
H 26.82  34.565 33.387
H 26.338 34.186 35.064
C 25.436 32.98  33.461
H 24.787 32.506 34.192
C 24.98  32.741 32.187
C 25.726 33.142 30.979
H 26.511 33.987 30.917
H 26.116 32.183 30.537
H 25.065 33.299 30.094
C 23.744 31.874 31.996
H 23.618 31.147 32.832
H 23.814 31.255 31.084
C 22.458 32.667 31.693
H 22.169 32.561 30.645
H 22.617 33.718 31.74 
C 21.164 32.387 32.5  
H 21.372 31.604 33.251
H 20.453 31.948 31.793
C 20.488 33.438 33.333
H 20.316 34.298 32.675
C 21.489 33.824 34.43 
H 21.088 34.558 35.15 
H 21.811 32.908 34.902
H 22.339 34.255 33.961
C 19.2   32.862 33.953
H 18.571 32.589 33.147
H 18.773 33.779 34.451
C 19.209 31.753 35.005
H 18.649 32.171 35.846
H 20.212 31.541 35.401
C 18.646 30.347 34.604
H 19.346 29.56  34.958
H 18.719 30.283 33.488
C 17.171 29.98  34.955
H 16.426 30.604 34.486
C 16.777 30.084 36.46 
H 17.115 30.958 36.966
H 15.707 30.13  36.635
H 17.22  29.394 37.134
C 16.826 28.517 34.433
H 16.316 27.987 35.192
H 17.747 27.988 34.209
C 15.792 28.466 33.258
H 16.257 27.793 32.514
H 15.585 29.459 32.814
C 14.453 27.846 33.651
H 13.831 28.589 34.197
H 14.602 27.029 34.347
C 13.567 27.316 32.484
H 14.116 26.627 31.83 
C 13.076 28.509 31.555
H 12.244 28.202 30.894
H 12.717 29.32  32.164
H 13.93  28.856 30.933
C 12.36  26.592 33.089
H 11.57  26.279 32.351
H 12.768 25.791 33.711
H 11.933 27.24  33.843
