137

Mg 20.038 25.487 27.943
C 23.238 25.609 29.355
C 19.22  28.181 29.891
H 18.908 29.064 30.44 
C 16.825 25.403 26.977
H 15.798 25.287 26.739
C 20.654 22.509 26.681
H 21.05  21.586 26.247
N 21.169 26.855 29.226
C 22.413 26.725 29.694
C 22.831 27.892 30.623
H 23.196 27.528 31.582
C 21.491 28.56  30.899
H 21.555 29.61  30.554
C 20.533 27.753 29.95 
C 21.032 28.462 32.378
H 20.    28.696 32.516
H 21.125 27.382 32.553
H 21.714 29.111 32.92 
C 23.923 28.796 30.036
H 23.536 29.022 29.019
H 24.79  28.193 30.178
C 24.288 30.048 30.778
H 23.825 30.078 31.701
H 25.37  29.916 30.897
C 24.036 31.39  30.035
O 24.051 31.583 28.867
O 23.72  32.302 30.974
N 18.353 26.766 28.119
C 18.216 27.756 29.058
C 16.879 28.302 28.926
C 16.256 27.481 28.039
C 17.166 26.46  27.662
C 16.312 29.432 29.812
H 17.135 30.089 30.192
H 15.699 29.983 29.062
H 15.642 29.084 30.676
C 14.854 27.564 27.68 
H 14.15  27.703 28.528
C 14.259 27.369 26.497
H 14.818 27.274 25.529
H 13.193 27.637 26.425
N 18.958 24.205 26.906
C 17.652 24.376 26.491
C 17.296 23.263 25.531
C 18.403 22.384 25.612
C 19.335 23.019 26.46 
C 16.042 23.124 24.792
H 15.467 24.062 24.798
H 16.312 22.864 23.801
H 15.409 22.401 25.186
C 18.601 21.03  24.794
H 18.772 20.206 25.456
H 17.639 20.74  24.325
C 19.715 21.121 23.694
H 20.75  21.403 24.084
H 19.848 20.155 23.087
H 19.525 21.911 22.976
N 21.67 24.27 27.9 
C 21.745 23.031 27.449
C 22.965 22.467 27.803
C 23.603 23.441 28.585
C 22.77  24.501 28.584
C 23.519 21.063 27.494
H 23.659 21.032 26.434
H 24.438 20.826 28.03 
H 22.667 20.489 27.789
C 24.807 23.72  29.223
O 25.787 23.071 29.389
C 24.67  25.199 29.654
H 25.386 25.752 29.053
C 25.101 25.212 31.057
O 24.569 24.664 31.988
O 26.317 25.861 31.154
C 27.132 25.495 32.293
H 28.097 25.95  32.299
H 26.733 25.988 33.135
H 27.083 24.434 32.515
C 23.927 33.681 30.516
H 24.706 33.713 29.759
H 24.261 34.274 31.346
C 22.603 34.439 30.206
H 21.794 33.847 29.73 
C 22.341 35.74  30.421
C 23.299 36.778 30.936
H 24.371 36.586 30.85 
H 23.144 37.742 30.577
H 22.956 36.893 31.974
C 21.05  36.259 29.891
H 20.583 35.58  29.264
H 21.208 37.152 29.258
C 20.063 36.699 30.893
H 20.264 36.464 31.974
H 19.192 36.058 30.731
C 19.56 38.2  30.78
H 18.579 38.253 30.333
H 20.122 38.737 30.071
C 19.712 39.071 32.106
H 20.601 38.811 32.594
C 18.416 38.91  32.954
H 17.629 39.125 32.3  
H 18.437 37.901 33.27 
H 18.2   39.552 33.885
C 19.81  40.618 31.709
H 19.763 41.177 32.628
H 18.872 40.791 31.284
C 20.964 41.074 30.755
H 21.768 40.386 30.619
H 21.336 41.933 31.261
C 20.426 41.56  29.41 
H 20.039 42.534 29.569
H 19.635 40.927 29.001
C 21.544 41.678 28.35 
H 22.384 42.212 28.767
C 21.11  42.65  27.266
H 20.189 42.302 26.827
H 20.975 43.596 27.683
H 21.863 42.594 26.499
C 22.033 40.349 27.767
H 21.225 39.92  27.176
H 22.066 39.702 28.62 
C 23.272 40.378 26.89 
H 23.649 41.384 26.805
H 22.969 40.055 25.934
C 24.339 39.328 27.471
H 24.59  38.548 26.753
H 23.961 38.812 28.364
C 25.717 39.853 27.936
H 25.599 40.758 28.557
C 26.583 40.298 26.721
H 27.504 40.834 27.143
H 26.955 39.414 26.13 
H 26.015 40.94  26.088
C 26.519 38.78  28.858
H 26.382 37.87  28.269
H 27.512 39.112 29.116
H 25.872 38.738 29.756
