137

Mg 30.671 31.038 34.378
C 29.128 28.702 32.379
C 33.424 31.072 32.392
H 34.235 31.158 31.642
C 31.94  33.573 36.223
H 32.323 34.354 36.896
C 27.939 30.772 36.615
H 27.068 30.744 37.249
N 31.123 30.194 32.567
C 30.325 29.316 31.876
C 30.933 28.986 30.512
H 31.149 27.857 30.32 
C 32.334 29.552 30.546
H 32.504 30.318 29.801
C 32.326 30.307 31.931
C 33.444 28.454 30.407
H 33.222 27.573 31.079
H 33.466 28.24  29.294
H 34.428 28.913 30.551
C 30.106 29.728 29.479
H 30.312 30.806 29.509
H 29.046 29.518 29.75 
C 30.428 29.174 28.045
H 30.933 29.937 27.469
H 31.193 28.337 27.985
C 29.402 28.683 27.074
O 29.277 29.013 25.938
O 28.466 28.027 27.767
N 32.451 32.125 34.367
C 33.513 31.92  33.489
C 34.596 32.864 33.773
C 34.144 33.654 34.894
C 32.77  33.149 35.146
C 35.897 33.012 33.034
H 35.928 32.252 32.266
H 35.804 33.967 32.597
H 36.781 32.975 33.674
C 34.76  34.768 35.656
H 34.357 35.044 36.678
C 35.619 35.616 35.039
H 35.891 35.576 33.991
H 36.182 36.406 35.54 
N 30.036 32.078 36.149
C 30.679 33.122 36.72 
C 29.97  33.627 37.811
C 28.799 32.785 37.999
C 28.887 31.833 36.904
C 30.346 34.769 38.62 
H 30.527 35.545 37.88 
H 29.697 35.093 39.477
H 31.304 34.521 39.033
C 27.773 33.022 39.139
H 27.694 32.119 39.725
H 28.127 33.735 39.937
C 26.401 33.426 38.627
H 26.36  34.495 38.343
H 26.147 32.835 37.768
H 25.744 33.306 39.514
N 28.923 29.97  34.576
C 27.942 29.855 35.536
C 26.947 28.888 35.084
C 27.363 28.452 33.863
C 28.646 29.057 33.648
C 25.79  28.441 35.872
H 24.932 28.365 35.163
H 26.    27.473 36.253
H 25.545 29.067 36.735
C 27.062 27.526 32.797
O 26.064 26.792 32.665
C 28.19  27.63  31.738
H 27.792 27.826 30.762
C 28.811 26.293 31.679
O 29.713 25.898 32.462
O 28.379 25.457 30.663
C 29.06  24.215 30.362
H 28.946 23.532 31.17 
H 28.695 23.741 29.479
H 30.134 24.35  30.336
C 27.278 27.602 27.032
H 27.539 27.171 26.087
H 26.729 28.492 26.893
C 26.483 26.585 27.813
H 25.995 26.982 28.737
C 26.3   25.272 27.521
C 27.175 24.487 26.496
H 27.473 23.534 26.874
H 26.677 24.256 25.575
H 28.093 24.985 26.167
C 25.417 24.405 28.386
H 24.891 24.984 29.106
H 26.149 23.774 28.971
C 24.31  23.572 27.679
H 24.393 22.473 27.67 
H 24.4   23.865 26.681
C 22.881 23.993 28.117
H 22.926 24.403 29.112
H 22.229 23.073 28.227
C 22.199 25.078 27.248
H 22.135 24.638 26.278
C 22.938 26.428 27.214
H 23.909 26.218 26.802
H 22.394 27.06  26.526
H 23.117 26.812 28.203
C 20.768 25.389 27.75 
H 20.18  24.472 27.53 
H 20.438 26.2   27.108
C 20.528 25.793 29.223
H 20.621 26.865 29.226
H 21.27  25.405 29.903
C 19.128 25.44  29.73 
H 18.498 25.066 28.895
H 18.656 26.389 29.796
C 19.017 24.531 31.015
H 19.555 25.081 31.811
C 19.62  23.134 30.779
H 19.447 22.32  31.545
H 19.382 22.813 29.82 
H 20.703 23.327 30.884
C 17.59  24.473 31.62 
H 16.966 23.989 30.861
H 17.277 25.479 31.83 
C 17.406 23.681 32.916
H 18.354 23.111 33.081
H 16.607 22.946 32.795
C 16.746 24.461 34.098
H 15.746 24.865 33.867
H 17.54  25.169 34.293
C 16.426 23.715 35.4  
H 17.308 23.119 35.57 
C 15.297 22.616 35.329
H 15.295 22.062 36.255
H 14.387 23.097 34.992
H 15.564 21.762 34.667
C 16.409 24.506 36.716
H 15.534 25.144 36.751
H 16.435 23.806 37.556
H 17.275 25.153 36.808
