137

Mg 26.117 32.836 33.694
C 24.795 32.085 36.718
C 23.01  33.444 32.447
H 22.023 33.514 31.939
C 27.542 33.751 30.729
H 27.987 34.011 29.799
C 29.319 32.011 34.91 
H 30.304 31.808 35.352
N 24.11  32.91  34.524
C 23.811 32.511 35.848
C 22.347 32.519 36.101
H 22.035 31.536 36.504
C 21.777 32.742 34.609
H 21.18  33.666 34.628
C 23.002 33.047 33.76 
C 20.869 31.74  33.893
H 21.374 30.789 33.654
H 20.129 31.545 34.636
H 20.412 32.091 32.937
C 22.059 33.713 37.009
H 22.63  34.517 36.602
H 22.46  33.572 37.949
C 20.616 34.099 37.28 
H 19.921 33.459 36.809
H 20.49  33.881 38.357
C 20.22  35.608 37.171
O 20.567 36.438 37.977
O 19.297 35.819 36.235
N 25.4   33.599 31.931
C 24.069 33.827 31.587
C 23.944 34.166 30.22 
C 25.266 34.15  29.668
C 26.131 33.874 30.828
C 22.625 34.697 29.606
H 21.878 33.953 29.589
H 22.168 35.48  30.234
H 22.718 34.982 28.566
C 25.742 34.615 28.333
H 26.734 34.918 28.227
C 24.984 34.526 27.213
H 24.005 33.993 27.269
H 25.339 34.804 26.183
N 28.161 33.056 32.998
C 28.51  33.365 31.759
C 29.905 33.31  31.552
C 30.472 32.722 32.674
C 29.282 32.58  33.588
C 30.586 33.674 30.26 
H 30.483 34.756 30.135
H 31.634 33.452 30.505
H 30.229 33.169 29.391
C 31.964 32.337 32.835
H 32.045 31.289 33.15 
H 32.464 32.389 31.867
C 32.703 33.136 33.947
H 33.775 32.964 33.838
H 32.369 34.153 33.825
H 32.393 32.79  34.95 
N 26.957 32.242 35.478
C 28.258 31.948 35.83 
C 28.263 31.43  37.237
C 26.941 31.515 37.652
C 26.222 31.982 36.526
C 29.472 31.066 38.06 
H 29.646 30.009 37.911
H 30.311 31.625 37.639
H 29.395 31.427 39.093
C 25.967 31.376 38.742
O 26.192 31.186 39.943
C 24.568 31.667 38.16 
H 24.081 32.42  38.814
C 23.826 30.402 38.27 
O 23.866 29.494 37.425
O 22.943 30.488 39.285
C 21.933 29.444 39.376
H 21.378 29.427 38.43 
H 22.42  28.498 39.442
H 21.234 29.513 40.221
C 18.566 37.055 36.431
H 19.168 37.99  36.427
H 17.934 36.962 37.278
C 17.726 37.329 35.208
H 18.389 37.636 34.403
C 16.423 37.452 35.12 
C 15.364 37.132 36.168
H 15.864 37.253 37.109
H 14.526 37.831 36.138
H 14.994 36.111 36.1  
C 15.786 37.82  33.764
H 16.638 37.879 33.082
H 15.3   38.735 33.952
C 14.736 36.881 33.154
H 14.662 35.855 33.478
H 14.936 36.883 32.048
C 13.34 37.32 33.38
H 13.217 38.38  33.435
H 13.058 36.908 34.373
C 12.312 36.782 32.308
H 12.66  37.201 31.398
C 10.91  37.416 32.579
H 10.321 37.242 31.702
H 10.378 37.234 33.498
H 11.1   38.495 32.6  
C 12.301 35.267 32.101
H 13.291 34.948 31.659
H 11.558 35.055 31.357
C 11.912 34.429 33.323
H 11.1   33.774 32.992
H 11.65  35.063 34.198
C 12.982 33.501 33.898
H 13.185 33.732 34.955
H 13.958 33.567 33.317
C 12.668 31.933 33.743
H 11.726 31.718 34.092
C 13.522 30.956 34.592
H 13.107 29.961 34.567
H 14.499 31.082 34.112
H 13.608 31.19  35.642
C 12.907 31.437 32.257
H 14.009 31.481 32.015
H 12.482 32.257 31.706
C 12.296 30.035 31.805
H 11.734 29.655 32.653
H 13.189 29.488 31.66 
C 11.51  29.921 30.496
H 11.842 28.979 30.047
H 11.819 30.595 29.761
C 10.008 30.06  30.51 
H  9.737 29.247 31.18 
C  9.458 29.673 29.129
H  8.392 29.558 29.184
H  9.535 30.414 28.338
H  9.89  28.793 28.716
C  9.514 31.388 31.014
H  8.497 31.585 30.844
H  9.732 31.322 32.074
H 10.095 32.161 30.474
