137

Mg 30.311 27.548 33.17 
C 27.951 26.446 30.902
C 32.671 27.304 30.572
H 33.356 27.218 29.735
C 32.675 28.403 35.413
H 33.473 28.757 35.946
C 27.899 27.568 35.657
H 27.046 27.581 36.301
N 30.298 26.984 31.028
C 29.198 26.604 30.323
C 29.499 26.566 28.802
H 29.266 25.615 28.404
C 31.013 26.727 28.701
H 31.319 27.603 28.201
C 31.375 26.964 30.217
C 31.782 25.568 27.966
H 31.361 24.638 28.418
H 31.518 25.458 26.915
H 32.835 25.618 28.106
C 28.761 27.648 27.926
H 29.123 28.581 28.317
H 27.7   27.516 28.189
C 29.002 27.588 26.404
H 29.523 28.469 26.101
H 29.578 26.69  26.238
C 27.806 27.437 25.579
O 27.692 26.72  24.592
O 26.903 28.409 25.952
N 32.305 27.852 32.977
C 33.113 27.697 31.814
C 34.458 28.069 32.161
C 34.488 28.273 33.538
C 33.094 28.214 34.065
C 35.729 28.005 31.178
H 36.703 27.902 31.639
H 35.701 27.053 30.662
H 35.589 28.746 30.424
C 35.631 28.571 34.426
H 35.525 28.16  35.405
C 36.75  29.25  34.086
H 36.844 29.699 33.067
H 37.588 29.417 34.767
N 30.289 28.053 35.205
C 31.334 28.421 35.928
C 30.928 28.706 37.273
C 29.545 28.505 37.31 
C 29.195 27.999 36.029
C 31.747 29.296 38.392
H 31.773 28.589 39.172
H 32.743 29.278 38.032
H 31.253 30.215 38.57 
C 28.723 28.671 38.532
H 28.129 27.761 38.771
H 29.313 28.836 39.472
C 27.719 29.796 38.496
H 28.208 30.607 37.952
H 26.794 29.534 37.926
H 27.424 30.115 39.518
N 28.296 27.089 33.274
C 27.484 27.085 34.363
C 26.105 26.746 33.935
C 26.29  26.355 32.564
C 27.62  26.649 32.262
C 24.798 26.891 34.742
H 24.107 27.473 34.199
H 24.306 25.921 34.942
H 24.818 27.475 35.657
C 25.602 25.969 31.406
O 24.432 25.709 31.22 
C 26.679 25.935 30.329
H 26.32  26.569 29.484
C 26.703 24.625 29.805
O 27.075 23.589 30.292
O 26.346 24.59  28.453
C 26.701 23.416 27.665
H 27.702 23.511 27.225
H 26.673 22.437 28.127
H 26.013 23.267 26.816
C 25.61  28.442 25.237
H 25.677 27.683 24.479
H 25.476 29.439 24.685
C 24.573 28.185 26.245
H 24.177 29.086 26.744
C 23.884 27.061 26.6  
C 24.285 25.724 26.005
H 25.287 25.734 25.735
H 23.924 25.033 26.732
H 23.668 25.459 25.155
C 22.946 27.069 27.813
H 22.824 28.035 28.266
H 23.422 26.441 28.567
C 21.508 26.655 27.524
H 21.551 26.328 26.458
H 20.876 27.516 27.31 
C 20.953 25.657 28.576
H 19.995 26.164 28.851
H 21.61  25.697 29.503
C 20.415 24.282 28.017
H 19.823 24.549 27.199
C 19.546 23.762 29.184
H 19.978 23.478 30.121
H 18.781 24.489 29.444
H 19.009 22.937 28.963
C 21.478 23.201 27.536
H 22.054 23.64  26.704
H 20.912 22.388 27.024
C 22.742 22.842 28.492
H 22.653 23.106 29.564
H 23.644 23.356 28.066
C 23.13  21.333 28.372
H 24.052 21.435 27.779
H 22.513 20.772 27.616
C 23.297 20.512 29.752
H 24.041 21.025 30.396
C 24.039 19.205 29.488
H 24.443 18.654 30.427
H 23.407 18.482 28.955
H 24.904 19.464 28.888
C 21.836 20.365 30.356
H 21.193 19.755 29.631
H 21.495 21.418 30.462
C 21.899 19.547 31.649
H 21.26  20.126 32.315
H 22.91  19.56  32.128
C 21.415 18.087 31.512
H 22.246 17.406 31.872
H 21.351 17.779 30.474
C 20.076 17.77  32.277
H 20.093 18.044 33.375
C 19.831 16.285 32.204
H 19.618 15.903 31.132
H 20.618 15.76  32.619
H 18.966 16.121 32.832
C 18.904 18.586 31.658
H 18.935 19.615 31.946
H 18.85  18.496 30.552
H 17.945 18.18  31.947
