137

Mg 21.924 17.496 25.543
C 22.143 16.842 22.214
C 25.005 19.19  25.449
H 25.931 19.751 25.342
C 21.971 17.974 28.917
H 22.155 18.15  29.986
C 19.021 15.778 25.758
H 17.959 15.43  25.792
N 23.308 18.003 23.987
C 23.138 17.746 22.665
C 24.237 18.401 21.822
H 24.718 17.681 21.191
C 25.264 18.808 22.893
H 25.541 19.815 22.826
C 24.534 18.634 24.21 
C 26.622 18.07  22.811
H 26.43  17.032 23.083
H 26.936 18.195 21.801
H 27.484 18.387 23.356
C 23.598 19.432 20.832
H 22.891 20.061 21.286
H 23.091 18.824 20.077
C 24.694 20.187 20.007
H 25.711 20.079 20.42 
H 24.589 19.755 19.052
C 24.477 21.667 19.743
O 24.077 22.09  18.676
O 24.791 22.427 20.864
N 23.224 18.509 26.937
C 24.414 19.126 26.692
C 24.894 19.688 27.925
C 24.008 19.342 28.935
C 22.961 18.618 28.244
C 26.084 20.553 27.97 
H 25.841 21.48  28.537
H 26.92  19.934 28.304
H 26.457 20.946 26.986
C 24.007 19.654 30.398
H 23.047 19.696 30.871
C 25.102 19.855 31.209
H 26.083 19.959 30.751
H 25.065 20.045 32.316
N 20.757 16.881 27.073
C 20.848 17.256 28.391
C 19.84  16.61  29.167
C 18.895 16.082 28.243
C 19.543 16.211 26.984
C 19.776 16.592 30.732
H 20.424 15.838 31.2  
H 19.816 17.614 31.05 
H 18.757 16.2   30.896
C 17.55  15.461 28.617
H 17.262 14.78  27.861
H 17.543 14.94  29.567
C 16.537 16.578 28.837
H 15.668 16.353 29.466
H 17.083 17.365 29.394
H 16.299 17.005 27.81 
N 20.787 16.524 24.363
C 19.604 15.851 24.549
C 19.105 15.312 23.269
C 20.11  15.706 22.335
C 21.079 16.349 23.068
C 17.786 14.508 22.938
H 17.766 14.051 21.963
H 17.729 13.683 23.628
H 16.898 15.156 22.968
C 20.435 15.79  20.95 
O 19.784 15.326 20.029
C 21.693 16.556 20.765
H 21.392 17.503 20.251
C 22.765 15.766 20.049
O 23.291 14.742 20.523
O 23.137 16.475 18.902
C 24.424 16.05  18.255
H 25.336 16.212 18.879
H 24.336 15.013 17.94 
H 24.473 16.549 17.331
C 24.447 23.829 20.749
H 23.847 24.086 19.867
H 25.417 24.366 20.705
C 23.691 24.346 21.977
H 24.204 24.335 22.943
C 22.528 25.055 22.039
C 21.676 25.484 20.825
H 21.861 26.548 20.608
H 21.894 24.826 19.979
H 20.691 25.391 21.207
C 22.091 25.632 23.404
H 22.56  25.046 24.26 
H 21.003 25.333 23.46 
C 22.267 27.165 23.581
H 21.308 27.66  23.455
H 22.962 27.49  22.762
C 22.905 27.547 24.926
H 23.378 26.684 25.39 
H 22.116 27.857 25.616
C 23.949 28.657 24.934
H 23.481 29.457 24.377
C 25.201 28.524 24.031
H 26.04  27.953 24.534
H 24.922 28.296 23.048
H 25.582 29.521 24.05 
C 24.323 29.251 26.421
H 25.041 30.073 26.314
H 24.851 28.435 26.956
C 23.192 29.751 27.335
H 22.212 29.676 26.831
H 23.359 30.836 27.455
C 23.296 29.074 28.8  
H 24.013 29.645 29.379
H 23.692 28.061 28.87 
C 21.854 28.838 29.419
H 21.305 28.355 28.597
C 21.241 30.194 29.697
H 20.424 30.045 30.381
H 21.934 30.836 30.197
H 20.88  30.741 28.855
C 21.906 27.911 30.631
H 22.326 28.447 31.436
H 22.525 27.027 30.559
C 20.509 27.407 31.116
H 20.517 26.329 31.   
H 19.696 27.675 30.486
C 20.064 27.928 32.507
H 19.095 28.435 32.357
H 20.825 28.654 32.86 
C 19.758 26.904 33.676
H 19.08  26.188 33.244
C 19.064 27.597 34.805
H 18.868 27.001 35.644
H 19.779 28.347 35.168
H 18.173 28.106 34.528
C 21.093 26.214 34.066
H 20.881 25.348 34.719
H 21.806 26.149 33.293
H 21.639 26.974 34.631
