137

Mg 34.914 35.688 34.644
C 32.318 34.654 32.565
C 36.068 32.433 34.625
H 36.346 31.387 34.796
C 37.037 36.417 37.274
H 37.536 36.722 38.198
C 33.548 38.854 34.831
H 33.059 39.737 34.764
N 34.272 33.788 33.641
C 33.255 33.598 32.738
C 33.117 32.201 32.197
H 32.139 31.773 32.366
C 34.093 31.459 33.126
H 34.745 30.801 32.577
C 34.907 32.625 33.802
C 33.422 30.552 34.2  
H 32.747 31.091 34.773
H 32.952 29.698 33.729
H 34.23  30.191 34.894
C 33.451 32.139 30.691
H 34.43  32.503 30.594
H 32.83  32.807 30.099
C 33.28  30.641 30.082
H 34.254 30.287 29.761
H 32.861 29.966 30.811
C 32.333 30.582 28.94 
O 32.606 30.113 27.842
O 31.096 30.932 29.374
N 36.461 34.613 35.702
C 36.7   33.297 35.55 
C 37.68  32.916 36.54 
C 38.026 34.112 37.286
C 37.141 35.133 36.75 
C 38.263 31.498 36.605
H 37.484 30.783 36.819
H 38.881 31.186 35.684
H 38.92  31.332 37.444
C 39.021 34.206 38.376
H 38.875 35.064 39.025
C 40.188 33.479 38.462
H 40.529 32.784 37.663
H 40.902 33.666 39.292
N 35.364 37.396 35.696
C 36.244 37.466 36.746
C 36.173 38.852 37.305
C 35.202 39.556 36.527
C 34.703 38.582 35.618
C 36.764 39.346 38.537
H 36.202 39.077 39.467
H 37.694 38.825 38.614
H 36.838 40.399 38.44 
C 34.529 40.881 36.745
H 33.448 40.804 36.584
H 34.587 41.246 37.81 
C 35.088 41.972 35.895
H 34.832 41.787 34.863
H 34.729 42.98  36.083
H 36.154 41.964 36.018
N 33.208 36.585 33.843
C 32.76  37.899 34.046
C 31.523 38.057 33.249
C 31.256 36.753 32.716
C 32.336 35.949 33.072
C 30.643 39.281 33.099
H 29.834 38.949 32.475
H 30.349 39.52  34.146
H 31.198 40.067 32.587
C 30.309 36.043 31.984
O 29.227 36.282 31.471
C 30.945 34.598 31.911
H 31.047 34.106 30.97 
C 29.981 33.817 32.815
O 30.217 33.418 33.924
O 28.766 33.585 32.15 
C 27.703 32.791 32.875
H 27.699 31.826 32.428
H 27.799 32.695 33.935
H 26.681 33.035 32.546
C 30.104 30.949 28.276
H 30.238 29.987 27.956
H 30.377 31.681 27.553
C 28.768 31.28  28.879
H 28.754 32.186 29.461
C 27.687 30.479 28.859
C 27.522 29.155 28.17 
H 27.269 29.107 27.097
H 28.46  28.595 28.185
H 26.73  28.574 28.663
C 26.513 30.892 29.752
H 26.721 31.728 30.326
H 26.16  30.131 30.52 
C 25.295 31.154 28.904
H 25.595 30.797 27.903
H 25.225 32.16  28.74 
C 23.949 30.708 29.371
H 23.281 31.566 29.343
H 24.135 30.303 30.373
C 23.301 29.505 28.643
H 24.012 28.686 28.65 
C 23.013 29.759 27.146
H 22.501 28.902 26.635
H 22.441 30.707 27.015
H 23.967 29.791 26.651
C 22.158 28.844 29.428
H 22.546 28.356 30.309
H 21.727 28.111 28.789
C 21.05  29.707 30.043
H 20.033 29.28  29.847
H 21.231 30.678 29.554
C 21.14  30.025 31.557
H 21.133 31.156 31.727
H 22.115 29.698 31.838
C 20.058 29.457 32.518
H 20.268 28.353 32.502
C 18.607 29.475 32.004
H 17.895 29.013 32.69 
H 18.16  30.457 32.081
H 18.528 28.877 31.043
C 20.123 29.978 33.971
H 19.41  29.434 34.563
H 19.966 31.063 33.959
C 21.46  29.672 34.639
H 21.867 30.675 34.751
H 22.134 29.064 33.982
C 21.406 28.936 35.998
H 20.433 29.002 36.41 
H 22.039 29.58  36.657
C 21.884 27.515 36.042
H 22.903 27.565 35.732
C 21.273 26.498 34.968
H 21.69  25.514 35.154
H 20.159 26.364 35.028
H 21.574 26.771 33.918
C 21.786 26.931 37.448
H 20.728 26.77  37.681
H 22.338 26.017 37.434
H 22.192 27.639 38.138
