137

Mg 28.463 31.379 36.65 
C 28.606 27.911 37.182
C 27.125 30.802 33.539
H 26.826 30.585 32.447
C 28.176 34.758 36.286
H 28.006 35.892 36.193
C 30.07  31.863 39.662
H 30.462 32.043 40.662
N 27.974 29.658 35.503
C 28.131 28.318 35.946
C 27.78  27.273 34.765
H 28.587 26.609 34.592
C 27.571 28.355 33.537
H 26.649 28.122 32.954
C 27.435 29.673 34.274
C 28.798 28.304 32.561
H 29.661 28.362 33.134
H 28.769 27.422 31.972
H 28.689 29.152 31.885
C 26.475 26.519 35.101
H 25.663 27.242 35.252
H 26.61  25.991 36.065
C 26.12  25.422 33.992
H 25.123 25.66  33.492
H 26.912 25.324 33.275
C 26.07  24.042 34.604
O 26.952 23.462 35.178
O 24.809 23.513 34.582
N 27.718 32.519 35.192
C 27.129 32.114 34.028
C 26.676 33.332 33.279
C 26.891 34.451 34.095
C 27.627 33.927 35.284
C 25.97  33.189 31.984
H 24.897 33.174 32.04 
H 26.246 34.106 31.425
H 26.299 32.404 31.38 
C 26.603 35.884 33.816
H 27.2   36.629 34.426
C 25.723 36.366 32.96 
H 25.034 35.831 32.344
H 25.678 37.514 33.01 
N 29.095 33.032 37.694
C 28.844 34.347 37.367
C 29.497 35.2   38.415
C 30.092 34.329 39.31 
C 29.779 33.019 38.9  
C 29.495 36.694 38.45 
H 28.535 37.023 38.819
H 30.34  37.046 39.099
H 29.623 37.176 37.432
C 30.91  34.806 40.557
H 31.53  33.973 40.867
H 31.461 35.708 40.279
C 30.2   35.144 41.805
H 30.872 35.28  42.637
H 29.663 36.121 41.589
H 29.447 34.346 41.986
N 29.143 30.194 38.162
C 29.723 30.551 39.39 
C 30.009 29.35  40.151
C 29.652 28.257 39.296
C 29.024 28.851 38.125
C 30.715 29.265 41.45 
H 31.765 28.951 41.287
H 30.779 30.151 42.063
H 30.109 28.554 42.084
C 29.776 26.839 39.001
O 30.229 25.962 39.749
C 29.099 26.579 37.609
H 28.242 25.863 37.776
C 30.104 25.912 36.737
O 30.814 26.522 35.946
O 30.057 24.575 36.987
C 30.887 23.837 36.042
H 30.439 23.977 35.083
H 31.913 24.28  36.007
H 30.849 22.763 36.245
C 24.734 22.155 34.973
H 24.785 21.94  36.034
H 25.506 21.59  34.458
C 23.486 21.555 34.421
H 23.452 21.602 33.334
C 22.54  20.693 34.935
C 22.466 20.296 36.425
H 23.164 20.863 37.056
H 21.458 20.235 36.907
H 22.777 19.255 36.436
C 21.341 20.356 34.014
H 21.376 20.92  33.126
H 20.54  20.768 34.657
C 21.066 18.898 33.624
H 20.196 18.86  32.943
H 20.773 18.245 34.484
C 22.294 18.274 32.874
H 23.194 18.886 32.95 
H 22.109 18.214 31.814
C 22.784 16.925 33.543
H 22.964 17.225 34.561
C 24.183 16.346 32.994
H 24.68  15.687 33.694
H 24.102 15.656 32.124
H 24.873 17.096 32.664
C 21.791 15.747 33.601
H 21.025 15.971 34.343
H 22.35  14.843 33.9  
C 21.059 15.394 32.318
H 21.037 14.28  32.132
H 21.514 15.887 31.475
C 19.504 15.797 32.242
H 19.504 16.548 31.48 
H 19.194 16.166 33.26 
C 18.493 14.761 31.728
H 18.952 14.129 30.964
C 17.166 15.451 31.244
H 16.61  15.747 32.107
H 17.356 16.345 30.674
H 16.664 14.654 30.597
C 18.235 13.687 32.853
H 17.701 14.179 33.723
H 19.143 13.313 33.232
C 17.354 12.527 32.293
H 16.931 12.766 31.275
H 16.509 12.361 33.025
C 18.047 11.143 32.38 
H 19.1   11.176 32.638
H 17.873 10.755 31.406
C 17.514 10.051 33.388
H 16.433 10.172 33.386
C 17.997 10.235 34.836
H 18.981  9.788 34.96 
H 17.913 11.319 35.064
H 17.37   9.602 35.446
C 17.645  8.598 32.877
H 17.313  8.522 31.857
H 18.693  8.29  32.881
H 16.925  8.056 33.492
