137

Mg 28.807 29.864 37.346
C 25.826 29.468 39.087
C 27.317 28.471 34.524
H 26.889 27.851 33.77 
C 31.346 30.927 35.466
H 32.284 31.003 34.873
C 30.138 31.476 40.08 
H 30.572 31.901 40.939
N 26.796 29.162 36.867
C 25.727 29.022 37.762
C 24.579 28.244 37.096
H 24.499 27.38  37.843
C 25.271 27.755 35.872
H 24.583 28.025 35.037
C 26.521 28.546 35.693
C 25.426 26.234 35.806
H 24.415 25.731 35.785
H 25.908 25.984 34.941
H 25.996 25.771 36.632
C 23.304 29.059 36.94 
H 23.549 29.941 36.29 
H 23.078 29.398 37.955
C 22.    28.262 36.469
H 22.3   27.307 35.999
H 21.341 28.105 37.294
C 21.129 29.038 35.441
O 19.922 29.239 35.614
O 21.802 29.312 34.329
N 29.325 29.674 35.332
C 28.6   28.975 34.343
C 29.299 28.888 33.166
C 30.388 29.756 33.349
C 30.411 30.185 34.754
C 28.916 28.155 31.92 
H 28.127 28.712 31.524
H 29.687 28.098 31.14 
H 28.646 27.102 32.089
C 31.458 30.01  32.373
H 31.822 29.065 31.858
C 32.07  31.203 32.074
H 31.662 32.141 32.645
H 32.975 31.223 31.447
N 30.542 30.974 37.762
C 31.45  31.307 36.82 
C 32.551 32.096 37.425
C 32.132 32.102 38.742
C 30.827 31.616 38.897
C 33.669 32.713 36.692
H 33.266 33.416 35.973
H 34.474 33.214 37.335
H 34.188 31.906 36.129
C 32.889 32.665 39.896
H 32.919 31.88  40.654
H 33.961 32.822 39.577
C 32.268 33.96  40.478
H 32.862 34.505 41.248
H 32.163 34.619 39.6  
H 31.211 33.863 40.874
N 28.156 30.401 39.159
C 28.839 30.989 40.219
C 28.059 30.948 41.419
C 26.821 30.339 41.067
C 26.956 30.086 39.609
C 28.562 31.422 42.741
H 29.311 30.777 43.101
H 28.881 32.533 42.704
H 27.699 31.326 43.408
C 25.519 29.978 41.528
O 25.017 30.085 42.633
C 24.789 29.329 40.154
H 23.929 29.917 39.977
C 24.438 27.908 40.569
O 25.16  27.009 40.918
O 23.109 27.862 40.522
C 22.408 26.689 40.963
H 23.127 25.86  40.957
H 21.955 26.963 41.875
H 21.651 26.529 40.153
C 20.918 29.865 33.225
H 20.543 30.872 33.362
H 20.103 29.134 33.006
C 21.765 29.889 31.943
H 22.764 30.327 32.03 
C 21.482 29.308 30.757
C 20.2   28.567 30.387
H 20.508 27.488 30.331
H 19.389 28.785 31.09 
H 19.859 28.837 29.431
C 22.473 29.418 29.638
H 23.3   30.099 29.726
H 21.839 29.783 28.827
C 23.148 28.071 29.203
H 22.661 27.189 29.583
H 24.176 27.995 29.508
C 23.057 27.818 27.592
H 24.045 28.067 27.18 
H 22.46  28.567 27.109
C 22.569 26.426 27.031
H 23.298 25.814 27.543
C 22.863 26.295 25.571
H 22.311 25.512 25.145
H 22.454 27.18  25.065
H 23.97  26.3   25.344
C 21.044 26.073 27.433
H 20.983 26.263 28.498
H 21.156 24.973 27.331
C 19.911 26.769 26.689
H 20.21  27.34  25.831
H 19.393 27.38  27.334
C 18.986 25.677 26.141
H 19.485 24.69  26.029
H 18.797 26.028 25.075
C 17.717 25.442 27.016
H 17.243 26.45  27.047
C 18.049 24.9   28.419
H 18.818 24.129 28.401
H 18.434 25.751 28.989
H 17.227 24.622 29.049
C 16.745 24.468 26.264
H 17.206 23.511 26.185
H 16.531 24.87  25.227
C 15.362 24.262 26.837
H 14.575 24.368 26.058
H 15.11  25.077 27.53 
C 15.131 22.85  27.498
H 16.155 22.491 27.695
H 14.525 22.224 26.868
C 14.406 22.798 28.881
H 14.724 23.596 29.542
C 14.723 21.483 29.649
H 15.742 21.283 29.734
H 14.258 21.441 30.602
H 14.354 20.683 29.054
C 12.952 23.133 28.784
H 12.867 24.007 28.213
H 12.409 22.292 28.29 
H 12.571 23.307 29.773
