137

Mg 22.558 17.801 31.248
C 25.475 16.537 29.79 
C 23.93  21.034 31.088
H 24.493 21.984 31.245
C 19.648 19.09  32.304
H 18.763 19.653 32.54 
C 21.148 14.707 30.966
H 20.78  13.702 30.961
N 24.448 18.588 30.522
C 25.52  17.919 29.96 
C 26.629 18.888 29.479
H 27.59  18.551 29.978
C 26.234 20.251 30.201
H 26.358 21.106 29.566
C 24.752 19.968 30.582
C 27.042 20.516 31.469
H 28.104 20.67  31.271
H 26.68  21.454 31.936
H 26.872 19.845 32.288
C 26.787 18.827 27.926
H 25.744 19.053 27.476
H 26.996 17.816 27.613
C 27.901 19.671 27.313
H 28.157 20.417 28.038
H 28.811 19.076 26.939
C 27.629 20.579 26.088
O 28.274 20.545 25.088
O 26.561 21.417 26.244
N 21.871 19.691 31.572
C 22.594 20.904 31.548
C 21.798 22.032 31.988
C 20.584 21.474 32.333
C 20.644 20.038 32.022
C 22.192 23.513 32.087
H 22.332 23.668 33.108
H 23.063 23.764 31.544
H 21.394 24.134 31.681
C 19.324 22.081 32.959
H 18.737 21.383 33.555
C 18.898 23.423 32.914
H 19.492 24.243 32.474
H 17.964 23.701 33.423
N 20.638 16.953 31.643
C 19.545 17.69  32.111
C 18.47  16.747 32.323
C 18.928 15.477 31.969
C 20.29  15.707 31.511
C 17.175 17.161 32.946
H 16.31  16.884 32.353
H 17.136 16.778 33.94 
H 17.27  18.228 33.116
C 18.211 14.097 32.091
H 17.721 13.721 31.156
H 18.911 13.288 32.36 
C 17.139 13.891 33.109
H 16.611 12.898 33.099
H 17.616 13.82  34.109
H 16.414 14.654 33.046
N 23.163 15.878 30.695
C 22.481 14.733 30.561
C 23.279 13.736 29.983
C 24.493 14.336 29.753
C 24.333 15.72  30.074
C 22.988 12.356 29.765
H 22.151 12.15  29.104
H 23.878 11.862 29.324
H 22.848 11.901 30.706
C 25.876 14.164 29.205
O 26.419 13.141 28.777
C 26.574 15.593 29.338
H 26.893 15.898 28.366
C 27.68  15.36  30.339
O 27.594 14.897 31.454
O 28.874 15.973 29.82 
C 29.875 15.892 30.868
H 30.336 14.888 31.038
H 30.595 16.66  30.575
H 29.515 16.324 31.762
C 26.246 22.32  25.135
H 26.052 21.724 24.273
H 27.201 22.927 25.037
C 25.149 23.187 25.658
H 25.391 23.584 26.643
C 23.892 23.183 25.191
C 23.433 22.397 23.996
H 24.207 22.194 23.224
H 23.003 21.419 24.211
H 22.644 23.014 23.665
C 22.847 23.846 26.095
H 23.029 23.673 27.128
H 21.876 23.397 25.9  
C 22.661 25.324 25.851
H 23.529 25.576 25.193
H 22.895 25.924 26.747
C 21.272 25.73  25.225
H 20.621 24.838 25.249
H 21.402 25.964 24.238
C 20.529 26.875 25.997
H 21.184 27.704 26.285
C 19.909 26.192 27.302
H 19.242 25.387 27.181
H 20.751 25.808 27.835
H 19.318 26.917 27.836
C 19.403 27.46  25.104
H 18.634 26.738 24.807
H 19.985 27.643 24.181
C 18.911 28.9   25.481
H 19.379 29.701 24.868
H 19.08  29.167 26.492
C 17.397 29.178 25.289
H 16.927 28.228 25.143
H 17.295 29.807 24.342
C 16.641 29.876 26.441
H 17.261 30.744 26.739
C 16.54  29.067 27.755
H 16.007 28.165 27.423
H 17.565 28.746 28.119
H 15.995 29.572 28.486
C 15.294 30.473 25.975
H 14.582 29.698 26.131
H 15.287 30.66  24.919
C 14.91  31.703 26.763
H 14.899 31.478 27.822
H 13.873 31.978 26.573
C 15.821 32.925 26.542
H 16.559 32.749 25.775
H 16.422 33.043 27.489
C 15.147 34.278 26.113
H 14.58  34.31  25.186
C 16.324 35.24  25.869
H 15.823 36.203 25.664
H 17.006 35.326 26.616
H 16.861 34.912 24.926
C 14.35  34.861 27.217
H 14.74  34.815 28.267
H 14.081 35.94  26.997
H 13.465 34.315 27.185
