137

Mg 19.872 26.537 28.494
C 23.26  25.99  29.096
C 20.059 29.342 30.454
H 19.971 30.279 31.006
C 16.65  27.136 28.069
H 15.561 27.138 27.904
C 19.884 24.035 26.178
H 19.882 23.244 25.402
N 21.484 27.606 29.537
C 22.759 27.147 29.654
C 23.582 28.13  30.507
H 24.129 27.457 31.195
C 22.476 29.057 31.085
H 22.592 30.097 30.823
C 21.233 28.624 30.324
C 22.191 29.137 32.58 
H 23.146 29.242 33.061
H 21.57  29.935 32.924
H 21.664 28.333 32.988
C 24.715 28.868 29.753
H 24.332 29.839 29.471
H 25.094 28.435 28.839
C 25.995 29.215 30.575
H 25.869 28.939 31.656
H 26.868 28.708 30.234
C 26.528 30.622 30.52 
O 27.49  31.072 29.95 
O 25.606 31.382 31.163
N 18.527 27.959 29.202
C 18.784 29.052 29.953
C 17.619 29.889 30.089
C 16.609 29.18  29.534
C 17.256 28.038 28.91 
C 17.599 31.252 30.702
H 18.261 31.931 30.166
H 16.582 31.647 30.667
H 17.915 31.22  31.756
C 15.152 29.494 29.295
H 15.001 30.528 29.039
C 14.158 28.617 29.422
H 14.368 27.526 29.688
H 13.099 28.93  29.379
N 18.542 25.829 27.198
C 17.229 26.12  27.278
C 16.494 25.245 26.26 
C 17.483 24.395 25.745
C 18.685 24.715 26.388
C 15.083 25.258 25.96 
H 14.567 26.182 26.143
H 14.853 24.886 24.968
H 14.638 24.501 26.664
C 17.278 23.299 24.674
H 16.35  23.466 24.131
H 18.097 23.311 23.926
C 17.225 21.925 25.246
H 16.595 22.052 26.184
H 16.669 21.31  24.648
H 18.235 21.598 25.481
N 21.236 25.296 27.768
C 21.106 24.246 26.831
C 22.436 23.653 26.648
C 23.253 24.271 27.572
C 22.512 25.285 28.143
C 22.804 22.607 25.702
H 23.704 22.2   26.062
H 22.121 21.758 25.578
H 23.039 23.119 24.796
C 24.611 24.21  28.139
O 25.505 23.475 27.756
C 24.666 25.373 29.123
H 25.481 26.096 28.904
C 24.925 24.637 30.413
O 24.466 23.563 30.751
O 25.851 25.389 31.189
C 26.04  24.82  32.467
H 26.543 23.849 32.582
H 26.739 25.529 32.952
H 25.209 24.921 33.095
C 25.907 32.787 31.096
H 26.035 33.029 30.091
H 26.69  33.112 31.787
C 24.631 33.449 31.564
H 24.33  33.078 32.568
C 24.03  34.54  31.087
C 24.302 35.257 29.788
H 23.651 36.101 29.572
H 25.312 35.595 29.843
H 24.114 34.671 28.857
C 22.896 35.203 31.836
H 22.571 34.675 32.656
H 22.036 35.264 31.177
C 23.164 36.673 32.247
H 24.228 36.929 32.418
H 22.621 36.882 33.115
C 22.592 37.742 31.281
H 22.067 37.117 30.565
H 23.327 38.188 30.676
C 21.515 38.81  31.747
H 21.959 39.288 32.586
C 20.21  38.263 32.339
H 19.41  39.088 32.482
H 19.74  37.643 31.607
H 20.341 37.731 33.278
C 21.185 39.871 30.72 
H 20.242 40.449 30.96 
H 20.908 39.299 29.829
C 22.236 40.963 30.383
H 22.1   41.218 29.347
H 23.291 40.545 30.549
C 22.258 42.13  31.383
H 23.212 42.208 31.884
H 21.409 41.983 32.188
C 22.13  43.508 30.758
H 22.78  43.479 29.841
C 22.531 44.576 31.771
H 21.903 44.514 32.648
H 23.61  44.499 32.071
H 22.512 45.555 31.246
C 20.685 43.73  30.227
H 20.152 44.136 31.066
H 20.162 42.861 29.972
C 20.416 44.627 29.021
H 21.351 45.019 28.807
H 19.63  45.384 29.316
C 20.067 43.88  27.679
H 19.754 42.951 27.97 
H 20.957 43.871 27.026
C 18.766 44.352 26.996
H 17.993 44.288 27.772
C 18.374 43.411 25.789
H 17.368 43.6   25.423
H 19.024 43.586 24.862
H 18.401 42.431 26.209
C 18.737 45.851 26.624
H 19.579 46.09  26.035
H 17.878 46.112 26.015
H 18.594 46.536 27.482
