137

Mg 27.267 29.694 32.203
C 26.164 26.674 30.902
C 28.515 30.386 29.036
H 28.865 30.537 28.026
C 28.741 32.423 33.399
H 29.103 33.368 33.784
C 26.483 28.603 35.407
H 26.36  28.181 36.42 
N 27.32  28.614 30.182
C 26.79  27.398 29.942
C 27.081 26.876 28.472
H 27.674 25.97  28.652
C 28.043 27.995 27.936
H 27.625 28.478 27.063
C 27.955 29.098 29.135
C 29.508 27.499 27.651
H 29.987 26.893 28.414
H 29.578 26.946 26.689
H 30.066 28.415 27.678
C 25.802 26.728 27.569
H 25.559 27.783 27.4  
H 25.117 26.103 28.169
C 26.063 26.19  26.16 
H 25.49  26.776 25.409
H 27.116 26.344 26.007
C 25.886 24.709 25.86 
O 26.795 23.906 25.649
O 24.539 24.422 25.635
N 28.338 31.222 31.353
C 28.676 31.361 30.051
C 29.387 32.626 29.875
C 29.511 33.248 31.102
C 28.903 32.29  32.027
C 29.817 33.147 28.558
H 29.096 33.036 27.784
H 29.916 34.212 28.56 
H 30.802 32.875 28.28 
C 29.976 34.532 31.49 
H 29.461 35.121 32.179
C 31.031 35.113 30.941
H 31.553 34.733 30.111
H 31.259 36.144 31.153
N 27.517 30.381 34.064
C 28.107 31.551 34.364
C 28.118 31.801 35.781
C 27.414 30.734 36.347
C 27.142 29.827 35.281
C 28.808 33.059 36.422
H 28.139 33.904 36.384
H 29.041 32.758 37.48 
H 29.681 33.249 35.795
C 27.049 30.563 37.78 
H 27.298 29.574 38.095
H 27.573 31.334 38.396
C 25.48  30.802 37.97 
H 25.079 31.675 37.401
H 24.905 30.011 37.534
H 25.268 30.859 39.039
N 26.496 28.058 33.047
C 26.247 27.701 34.364
C 25.702 26.374 34.46 
C 25.603 25.973 33.16 
C 26.128 26.994 32.297
C 25.14  25.688 35.73 
H 25.922 25.457 36.415
H 24.48  26.41  36.199
H 24.561 24.8   35.425
C 25.206 24.92  32.291
O 24.683 23.854 32.518
C 25.561 25.302 30.825
H 24.72  25.274 30.181
C 26.425 24.182 30.354
O 27.441 23.785 30.881
O 26.003 23.816 29.152
C 26.804 22.725 28.51 
H 26.797 21.774 29.102
H 26.349 22.575 27.547
H 27.887 22.972 28.419
C 24.346 23.023 25.345
H 24.663 22.322 26.185
H 24.785 22.733 24.349
C 22.881 22.865 25.248
H 22.451 23.578 24.611
C 21.96  21.982 25.775
C 22.39  20.858 26.738
H 22.549 19.933 26.216
H 23.378 21.077 27.178
H 21.59  20.657 27.451
C 20.478 22.131 25.669
H 20.333 23.185 25.697
H 19.966 21.893 26.547
C 19.767 21.378 24.455
H 19.736 20.369 24.788
H 20.371 21.322 23.593
C 18.426 22.005 24.036
H 18.42  22.152 22.974
H 18.448 23.05  24.42 
C 17.227 21.072 24.306
H 17.574 20.086 24.018
C 16.081 21.254 23.277
H 15.639 22.267 23.377
H 16.349 21.201 22.2  
H 15.325 20.538 23.536
C 16.798 21.039 25.81 
H 17.746 20.759 26.236
H 16.063 20.311 25.984
C 16.312 22.368 26.357
H 15.241 22.214 26.539
H 16.234 23.135 25.595
C 17.028 22.848 27.611
H 17.088 23.942 27.514
H 18.016 22.574 27.587
C 16.356 22.503 29.002
H 15.4   22.88  28.911
C 17.078 23.413 30.079
H 18.096 23.102 29.872
H 16.817 24.458 29.993
H 16.874 23.116 31.096
C 16.339 21.005 29.338
H 17.345 20.576 29.421
H 15.848 20.454 28.519
C 15.607 20.662 30.695
H 14.752 19.99  30.421
H 15.186 21.45  31.211
C 16.567 20.012 31.829
H 17.459 20.599 31.792
H 16.875 18.967 31.684
C 16.034 20.125 33.351
H 15.738 21.14  33.564
C 17.216 19.656 34.286
H 16.851 19.629 35.346
H 17.578 18.697 33.864
H 18.071 20.383 34.107
C 14.766 19.201 33.517
H 15.129 18.145 33.527
H 14.302 19.526 34.485
H 14.032 19.231 32.694
