137

Mg 21.017 25.578 32.398
C 23.721 24.973 34.345
C 20.374 28.346 34.435
H 20.237 29.3   34.99 
C 18.707 26.697 30.236
H 17.913 27.04  29.506
C 21.852 22.97  30.476
H 22.055 22.069 29.886
N 21.87  26.505 34.275
C 23.043 26.089 34.838
C 23.317 26.873 36.097
H 23.323 26.187 36.966
C 22.11  27.764 36.232
H 22.404 28.844 36.268
C 21.371 27.519 34.925
C 21.23  27.524 37.52 
H 20.53  28.346 37.516
H 20.721 26.553 37.719
H 21.87  27.823 38.311
C 24.667 27.662 35.991
H 24.671 28.35  35.16 
H 25.454 26.952 35.742
C 25.004 28.435 37.284
H 24.268 28.192 38.11 
H 25.992 28.202 37.64 
C 24.966 29.93  37.166
O 25.82  30.641 36.684
O 23.715 30.416 37.437
N 19.736 27.282 32.374
C 19.63  28.273 33.267
C 18.603 29.228 32.801
C 18.128 28.82  31.562
C 18.863 27.549 31.313
C 18.216 30.447 33.568
H 18.182 30.221 34.631
H 18.793 31.318 33.299
H 17.247 30.608 33.134
C 17.125 29.5   30.714
H 16.479 28.9   30.047
C 16.875 30.872 30.719
H 17.629 31.473 31.179
H 16.108 31.307 30.094
N 20.417 24.957 30.659
C 19.399 25.526 29.895
C 19.06  24.663 28.748
C 19.963 23.595 28.921
C 20.787 23.822 30.059
C 18.004 24.934 27.629
H 17.757 24.045 27.085
H 17.094 25.358 28.038
H 18.447 25.549 26.827
C 20.091 22.327 28.117
H 20.133 21.57  28.886
H 19.219 22.302 27.415
C 21.359 22.306 27.193
H 21.377 23.199 26.541
H 22.259 22.145 27.739
H 21.425 21.462 26.504
N 22.439 24.227 32.345
C 22.7   23.18  31.511
C 23.898 22.508 31.841
C 24.25  23.202 33.023
C 23.406 24.247 33.229
C 24.488 21.323 31.213
H 25.431 21.104 31.612
H 23.74  20.526 31.402
H 24.522 21.385 30.104
C 25.174 23.088 34.131
O 26.184 22.375 34.293
C 24.859 24.217 35.064
H 25.77  24.804 35.155
C 24.46  23.525 36.342
O 23.447 22.838 36.453
O 25.415 23.755 37.271
C 25.085 23.197 38.649
H 25.069 22.146 38.507
H 25.897 23.534 39.353
H 24.222 23.786 38.999
C 23.519 31.812 37.232
H 23.841 32.26  36.279
H 23.873 32.488 38.079
C 22.03  31.944 37.386
H 21.691 31.855 38.44 
C 21.118 32.172 36.44 
C 21.441 32.124 34.982
H 20.629 31.811 34.251
H 21.774 33.077 34.582
H 22.21  31.407 34.72 
C 19.616 32.443 36.797
H 19.48  32.157 37.805
H 18.982 31.775 36.259
C 19.053 33.852 36.599
H 19.91  34.527 36.584
H 18.465 34.022 37.559
C 18.219 34.043 35.382
H 18.257 33.177 34.804
H 18.709 34.869 34.9  
C 16.649 34.326 35.506
H 16.56  35.089 36.278
C 16.014 33.06  36.177
H 16.357 32.119 35.76 
H 16.365 32.966 37.231
H 14.967 33.098 36.241
C 15.95  34.751 34.202
H 14.861 34.474 34.296
H 16.345 34.022 33.511
C 16.2   36.262 33.886
H 17.044 36.539 34.515
H 15.361 36.874 34.203
C 16.527 36.469 32.39 
H 15.703 37.063 31.942
H 16.659 35.537 31.839
C 17.734 37.389 32.066
H 18.557 36.977 32.645
C 17.47  38.852 32.619
H 18.296 39.595 32.533
H 16.566 39.222 32.212
H 17.347 38.809 33.695
C 18.06  37.467 30.562
H 18.648 38.344 30.271
H 17.136 37.612 30.044
C 18.742 36.155 30.051
H 18.68  35.391 30.891
H 19.783 36.307 29.728
C 17.95  35.468 28.897
H 16.899 35.758 28.83 
H 17.843 34.46  29.195
C 18.608 35.604 27.492
H 19.671 35.329 27.56 
C 18.548 37.024 26.817
H 18.866 36.996 25.762
H 17.56  37.345 26.805
H 19.279 37.682 27.323
C 18.034 34.601 26.501
H 18.803 34.576 25.697
H 17.951 33.557 26.848
H 17.056 34.933 26.073
