137

Mg 29.357 28.48  34.377
C 27.911 26.513 31.879
C 32.192 28.63  32.47 
H 33.079 28.765 31.818
C 30.761 30.523 36.654
H 31.174 31.195 37.386
C 26.577 28.057 36.237
H 25.705 27.823 36.862
N 29.869 27.869 32.268
C 29.104 27.038 31.433
C 29.82  26.804 30.036
H 30.011 25.773 29.924
C 31.115 27.542 30.281
H 31.068 28.385 29.569
C 31.08  28.169 31.698
C 32.401 26.589 30.052
H 32.455 25.844 30.849
H 32.364 26.13  29.033
H 33.371 27.19  30.144
C 28.852 27.298 28.894
H 28.858 28.354 28.79 
H 27.88  27.054 29.176
C 29.116 26.652 27.512
H 28.682 27.287 26.685
H 30.214 26.758 27.328
C 28.705 25.214 27.225
O 29.45  24.342 26.805
O 27.361 25.142 27.609
N 31.243 29.434 34.511
C 32.296 29.199 33.77 
C 33.491 29.844 34.328
C 33.021 30.463 35.503
C 31.599 30.156 35.59 
C 34.86  29.934 33.656
H 35.038 28.969 33.101
H 35.043 30.969 33.243
H 35.614 29.959 34.451
C 33.675 31.357 36.459
H 33.251 31.482 37.451
C 34.721 32.145 36.166
H 35.131 32.108 35.111
H 35.142 32.88  36.814
N 28.79  29.188 36.215
C 29.474 30.117 36.969
C 28.666 30.421 38.149
C 27.466 29.735 38.016
C 27.533 28.982 36.738
C 28.971 31.446 39.143
H 29.04  31.039 40.189
H 29.942 31.825 38.823
H 28.257 32.226 39.141
C 26.336 29.597 38.982
H 26.052 28.532 38.868
H 26.684 29.849 40.001
C 25.094 30.387 38.571
H 24.655 30.078 37.636
H 24.22  30.287 39.217
H 25.291 31.425 38.394
N 27.651 27.41  34.244
C 26.59  27.343 35.06 
C 25.602 26.42  34.498
C 26.121 26.1   33.246
C 27.357 26.736 33.124
C 24.349 25.935 34.984
H 23.958 26.696 35.646
H 23.658 25.822 34.204
H 24.467 24.967 35.414
C 25.861 25.33  32.08 
O 24.803 24.803 31.688
C 27.107 25.404 31.164
H 26.753 25.523 30.136
C 27.67  24.002 31.368
O 27.564 23.261 32.328
O 28.246 23.587 30.169
C 28.956 22.283 30.117
H 29.238 22.012 29.083
H 29.907 22.354 30.643
H 28.44  21.377 30.508
C 26.776 23.87  27.435
H 27.144 23.146 28.174
H 26.859 23.472 26.406
C 25.236 24.073 27.543
H 24.965 25.088 27.311
C 24.32  23.295 28.084
C 24.498 21.848 28.492
H 24.812 21.762 29.554
H 23.563 21.265 28.48 
H 25.243 21.399 27.901
C 22.993 23.902 28.412
H 23.076 24.985 28.243
H 22.734 23.824 29.52 
C 21.898 23.448 27.483
H 22.451 22.984 26.73 
H 21.517 24.315 27.021
C 20.857 22.494 28.126
H 21.213 22.037 29.091
H 20.729 21.667 27.404
C 19.533 23.091 28.638
H 19.139 23.703 27.798
C 19.933 24.146 29.696
H 19.007 24.49  30.167
H 20.475 23.66  30.51 
H 20.576 24.945 29.321
C 18.445 22.02  29.146
H 18.256 21.41  28.314
H 17.505 22.635 29.4  
C 18.788 21.15  30.428
H 19.861 21.315 30.607
H 18.702 20.047 30.127
C 18.122 21.638 31.81 
H 17.471 22.462 31.498
H 18.858 22.06  32.515
C 17.568 20.509 32.746
H 16.753 20.086 32.136
C 16.806 21.051 34.004
H 16.458 20.172 34.498
H 17.486 21.577 34.596
H 15.958 21.669 33.704
C 18.7   19.484 33.121
H 19.483 20.042 33.651
H 19.23  19.182 32.2  
C 18.319 18.187 33.904
H 18.328 17.375 33.223
H 17.265 18.334 34.147
C 19.273 17.877 35.125
H 19.995 18.701 35.23 
H 19.799 16.957 34.797
C 18.66  17.552 36.428
H 17.853 16.901 36.201
C 18.184 18.706 37.355
H 17.667 18.252 38.187
H 19.085 19.246 37.705
H 17.508 19.359 36.865
C 19.689 16.795 37.348
H 20.476 17.537 37.512
H 19.148 16.396 38.253
H 20.024 15.937 36.857
