137

Mg 29.026 30.263 33.636
C 28.172 27.016 32.791
C 29.901 30.813 30.326
H 30.281 30.939 29.283
C 29.898 33.428 34.421
H 30.162 34.417 34.709
C 28.34  29.555 36.95 
H 28.134 29.324 37.981
N 29.1   29.034 31.797
C 28.635 27.786 31.645
C 28.567 27.383 30.165
H 29.015 26.37  30.051
C 29.511 28.356 29.479
H 29.045 28.904 28.704
C 29.558 29.529 30.57 
C 30.898 27.892 29.036
H 31.346 27.407 29.906
H 30.869 27.179 28.161
H 31.654 28.63  28.857
C 27.066 27.387 29.648
H 26.48  28.311 29.869
H 26.55  26.572 30.189
C 26.82  26.911 28.233
H 26.575 27.627 27.583
H 27.739 26.454 27.898
C 25.994 25.758 27.944
O 26.304 24.623 27.657
O 24.758 26.189 28.288
N 29.724 31.842 32.558
C 29.97  31.9   31.218
C 30.527 33.2   30.844
C 30.478 33.974 32.031
C 29.978 33.046 33.107
C 31.013 33.65  29.457
H 31.759 34.447 29.409
H 31.483 32.892 28.861
H 30.118 33.924 28.975
C 30.939 35.344 32.231
H 31.788 35.774 31.741
C 30.184 36.249 32.865
H 29.167 35.901 33.322
H 30.488 37.315 32.919
N 29.236 31.28  35.365
C 29.553 32.605 35.488
C 29.505 32.981 36.876
C 29.029 31.891 37.575
C 28.828 30.838 36.593
C 29.907 34.327 37.347
H 29.642 35.018 36.584
H 29.451 34.519 38.34 
H 30.994 34.332 37.383
C 28.861 31.847 39.114
H 28.796 30.789 39.41 
H 29.656 32.427 39.658
C 27.506 32.456 39.396
H 27.44  33.493 39.067
H 26.795 31.912 38.809
H 27.19  32.485 40.461
N 28.438 28.694 34.651
C 28.221 28.52  36.024
C 27.94  27.114 36.325
C 27.879 26.535 35.065
C 28.175 27.496 34.098
C 27.812 26.469 37.698
H 26.789 26.384 37.87 
H 28.214 25.464 37.753
H 28.319 27.135 38.433
C 27.643 25.284 34.362
O 27.304 24.224 34.855
C 27.792 25.491 32.857
H 26.891 25.304 32.317
C 28.817 24.48  32.438
O 30.028 24.768 32.333
O 28.263 23.322 31.918
C 29.286 22.494 31.216
H 29.394 23.082 30.287
H 30.115 22.242 31.804
H 28.789 21.56  31.024
C 23.861 25.072 28.549
H 24.343 24.472 29.341
H 23.702 24.499 27.674
C 22.702 25.768 29.147
H 23.079 26.466 29.902
C 21.357 25.566 28.915
C 20.744 24.741 27.771
H 20.954 25.288 26.838
H 21.205 23.706 27.717
H 19.729 24.476 27.898
C 20.309 26.102 29.864
H 20.756 26.585 30.697
H 19.763 25.273 30.286
C 19.399 27.135 29.22 
H 19.19  26.941 28.192
H 19.936 28.049 29.151
C 17.989 27.347 29.887
H 17.788 28.384 30.09 
H 18.038 26.893 30.867
C 16.737 27.045 29.031
H 16.894 27.476 28.067
C 15.443 27.67  29.479
H 15.002 27.292 30.455
H 15.529 28.771 29.563
H 14.674 27.551 28.743
C 16.431 25.527 28.686
H 17.379 25.271 28.178
H 15.536 25.39  28.008
C 16.348 24.576 29.876
H 15.37  24.324 30.017
H 16.698 25.007 30.706
C 17.226 23.35  29.741
H 18.112 23.499 29.155
H 16.628 22.615 29.235
C 17.769 22.745 31.082
H 18.119 23.584 31.746
C 18.889 21.701 30.766
H 18.51  20.769 30.487
H 19.677 22.087 30.128
H 19.405 21.473 31.687
C 16.648 22.062 31.98 
H 17.077 21.434 32.771
H 16.059 21.438 31.305
C 15.589 22.932 32.651
H 14.697 22.855 32.072
H 15.847 23.995 32.61 
C 15.464 22.52  34.096
H 15.012 23.359 34.692
H 16.396 22.283 34.553
C 14.508 21.217 34.372
H 14.792 20.39  33.749
C 13.069 21.438 33.846
H 12.574 20.538 34.142
H 12.551 22.274 34.246
H 13.028 21.467 32.749
C 14.477 20.798 35.905
H 13.788 21.6   36.22 
H 14.058 19.826 36.165
H 15.41  20.943 36.471
