137

Mg 21.204 16.77  26.2  
C 23.342 17.283 23.417
C 23.424 18.399 28.194
H 24.138 18.884 28.792
C 19.224 16.083 28.83 
H 18.683 15.895 29.707
C 19.037 15.063 24.065
H 18.302 14.659 23.347
N 23.055 17.897 25.778
C 23.766 18.055 24.553
C 24.956 18.962 24.782
H 25.881 18.404 24.379
C 25.117 19.013 26.352
H 24.988 20.055 26.771
C 23.833 18.432 26.8  
C 26.438 18.45  27.02 
H 26.667 17.444 26.695
H 27.164 19.169 26.697
H 26.277 18.515 28.105
C 24.74  20.309 24.115
H 23.897 20.77  24.657
H 24.488 20.191 23.053
C 25.941 21.279 24.05 
H 26.797 20.753 24.553
H 26.192 21.54  23.024
C 25.946 22.644 24.812
O 26.921 23.388 24.795
O 24.788 22.893 25.538
N 21.283 17.152 28.112
C 22.275 17.794 28.781
C 22.022 17.912 30.198
C 20.699 17.419 30.36 
C 20.367 16.856 29.069
C 22.906 18.515 31.259
H 22.647 18.039 32.18 
H 23.951 18.351 31.109
H 22.7   19.549 31.244
C 19.965 17.313 31.634
H 19.426 16.376 31.629
C 19.911 18.285 32.592
H 20.343 19.282 32.36 
H 19.303 18.217 33.459
N 19.39  15.827 26.446
C 18.669 15.616 27.603
C 17.43  14.943 27.296
C 17.415 14.71  25.908
C 18.69  15.174 25.428
C 16.367 14.617 28.301
H 15.489 15.16  27.969
H 16.168 13.575 28.371
H 16.872 14.989 29.181
C 16.313 14.081 25.069
H 16.647 13.297 24.385
H 15.781 13.457 25.79 
C 15.413 15.075 24.337
H 14.905 15.722 25.1  
H 16.01  15.751 23.674
H 14.636 14.577 23.684
N 21.167 16.235 24.187
C 20.262 15.43  23.43 
C 20.746 15.27  22.087
C 21.963 15.991 22.058
C 22.146 16.531 23.378
C 20.026 14.489 20.967
H 19.784 13.472 21.26 
H 19.183 15.066 20.604
H 20.817 14.371 20.233
C 22.991 16.377 21.234
O 23.238 16.156 20.075
C 23.924 17.249 22.02 
H 23.803 18.212 21.537
C 25.258 16.61  21.956
O 25.574 15.422 22.061
O 26.125 17.637 21.722
C 27.565 17.163 21.685
H 27.831 16.584 22.558
H 27.753 16.504 20.837
H 28.147 18.043 21.571
C 24.767 24.203 26.227
H 24.861 25.134 25.585
H 25.645 24.111 26.852
C 23.585 24.357 27.077
H 23.302 23.526 27.785
C 22.807 25.461 27.287
C 22.973 26.764 26.546
H 23.972 27.086 26.82 
H 22.869 26.635 25.398
H 22.206 27.535 26.848
C 21.553 25.416 28.246
H 21.588 24.46  28.76 
H 20.712 25.418 27.684
C 21.509 26.368 29.409
H 22.415 27.02  29.277
H 21.479 25.851 30.391
C 20.237 27.276 29.464
H 19.78  26.96  30.358
H 19.435 26.979 28.726
C 20.577 28.775 29.597
H 21.168 29.051 28.757
C 21.202 29.029 30.96 
H 21.535 30.004 31.011
H 20.504 28.784 31.739
H 22.167 28.487 31.101
C 19.242 29.628 29.438
H 19.512 30.631 29.729
H 18.473 29.246 30.181
C 18.592 29.631 27.996
H 17.564 29.512 28.099
H 18.917 28.975 27.25 
C 18.876 31.009 27.428
H 18.981 30.934 26.354
H 19.741 31.549 27.807
C 17.568 31.964 27.432
H 16.721 31.479 26.926
C 17.754 33.044 26.389
H 18.661 33.435 26.582
H 17.704 32.511 25.434
H 16.995 33.855 26.482
C 17.287 32.47  28.878
H 17.885 33.415 28.853
H 17.709 31.838 29.57 
C 15.828 32.762 29.136
H 15.582 33.597 28.424
H 15.813 33.223 30.137
C 14.914 31.543 28.988
H 15.452 30.643 29.202
H 14.511 31.565 27.985
C 13.743 31.492 29.98 
H 14.2   31.444 30.915
C 12.77  30.286 29.838
H 13.321 29.355 29.779
H 12.102 30.308 30.667
H 12.232 30.308 28.871
C 12.901 32.875 29.844
H 13.562 33.687 30.263
H 12.584 33.058 28.762
H 12.036 32.906 30.598
