137

Mg 23.68  31.132 32.232
C 22.603 28.349 33.966
C 20.352 31.514 31.097
H 19.396 31.709 30.623
C 24.8   33.593 30.044
H 25.153 34.405 29.417
C 26.988 30.129 32.787
H 27.978 29.958 33.116
N 21.711 30.138 32.574
C 21.511 29.032 33.345
C 20.094 28.549 33.372
H 20.034 27.539 32.929
C 19.411 29.603 32.502
H 18.704 30.197 33.155
C 20.565 30.469 31.967
C 18.546 29.096 31.276
H 18.487 29.812 30.42 
H 18.951 28.14  30.839
H 17.494 28.877 31.607
C 19.488 28.57  34.806
H 19.155 29.584 34.99 
H 20.15  28.409 35.648
C 18.266 27.691 34.924
H 17.995 27.227 33.993
H 18.414 26.967 35.623
C 17.068 28.425 35.503
O 17.003 28.782 36.683
O 16.133 28.67  34.615
N 22.706 32.364 30.816
C 21.348 32.434 30.617
C 21.17  33.49  29.671
C 22.383 34.119 29.337
C 23.403 33.342 30.069
C 19.783 33.772 29.143
H 19.279 34.064 30.053
H 19.761 34.542 28.397
H 19.388 32.881 28.672
C 22.68  35.169 28.335
H 23.605 35.183 27.708
C 21.855 36.229 28.19 
H 20.889 36.392 28.777
H 22.036 36.967 27.424
N 25.595 31.744 31.433
C 25.814 32.847 30.685
C 27.243 33.144 30.736
C 27.84  32.167 31.577
C 26.805 31.257 31.952
C 27.821 34.216 29.913
H 27.57  35.186 30.277
H 28.953 34.091 29.732
H 27.336 34.191 28.926
C 29.29  32.059 31.856
H 29.635 30.97  31.783
H 29.837 32.648 31.118
C 29.753 32.262 33.293
H 29.417 31.625 34.107
H 30.85  32.271 33.292
H 29.414 33.268 33.475
N 24.64  29.665 33.183
C 25.979 29.322 33.334
C 26.092 28.023 33.928
C 24.782 27.632 34.175
C 23.926 28.632 33.701
C 27.388 27.454 34.426
H 28.151 27.542 33.606
H 27.761 27.759 35.393
H 27.184 26.356 34.558
C 23.993 26.645 34.763
O 24.335 25.633 35.336
C 22.639 27.03  34.703
H 22.251 27.078 35.741
C 22.033 25.809 34.034
O 21.73  25.793 32.843
O 21.438 24.939 34.916
C 20.567 23.917 34.351
H 20.16  23.406 35.263
H 19.666 24.394 33.986
H 21.059 23.36  33.638
C 15.033 29.602 34.851
H 14.864 29.902 35.862
H 14.181 29.138 34.342
C 15.426 30.843 34.032
H 15.023 30.899 33.029
C 16.38  31.773 34.369
C 17.004 32.02  35.697
H 16.463 31.406 36.389
H 18.053 31.823 35.837
H 16.678 32.996 35.996
C 16.728 32.773 33.307
H 16.818 32.293 32.326
H 17.593 33.265 33.655
C 15.624 33.787 33.085
H 15.43  34.131 34.124
H 14.777 33.318 32.721
C 16.074 34.976 32.212
H 15.388 34.906 31.275
H 17.107 34.802 32.075
C 15.752 36.314 32.849
H 14.828 36.234 33.297
C 15.606 37.503 31.852
H 15.067 38.307 32.355
H 16.594 37.843 31.448
H 15.031 37.119 30.921
C 16.703 36.67  34.02 
H 16.59  35.906 34.743
H 16.361 37.567 34.464
C 18.202 36.896 33.827
H 18.672 36.271 33.016
H 18.74  36.564 34.737
C 18.671 38.306 33.593
H 19.381 38.389 34.414
H 17.823 39.041 33.688
C 19.463 38.653 32.255
H 18.736 38.48  31.45 
C 20.774 37.854 32.024
H 21.271 37.921 31.066
H 21.33  38.105 32.871
H 20.563 36.774 32.189
C 19.928 40.187 32.231
H 20.55  40.277 31.26 
H 20.529 40.469 33.073
C 18.737 41.162 32.194
H 18.751 41.644 33.112
H 17.832 40.605 32.282
C 18.656 42.154 30.987
H 17.678 42.004 30.616
H 19.355 41.933 30.186
C 18.86  43.58  31.404
H 19.834 43.756 31.899
C 17.709 44.08  32.362
H 17.673 45.151 32.548
H 16.85  43.849 31.754
H 17.668 43.579 33.329
C 18.952 44.452 30.167
H 19.007 45.446 30.484
H 19.915 44.105 29.66 
H 18.15  44.249 29.354
