137

Mg 35.051 34.29  35.505
C 32.252 33.313 33.526
C 36.667 31.637 34.117
H 37.274 30.853 33.777
C 37.358 34.921 37.642
H 38.181 35.065 38.376
C 32.911 36.67  36.976
H 32.179 37.315 37.482
N 34.583 32.744 33.928
C 33.401 32.577 33.164
C 33.472 31.339 32.178
H 32.88  30.497 32.523
C 34.883 30.738 32.492
H 35.475 30.768 31.598
C 35.44  31.814 33.525
C 34.946 29.297 33.111
H 34.363 29.319 33.996
H 34.465 28.47  32.51 
H 35.968 29.062 33.43 
C 33.198 31.809 30.723
H 34.011 32.478 30.53 
H 32.188 32.313 30.636
C 33.397 30.756 29.547
H 34.24  31.023 28.956
H 33.394 29.637 29.785
C 32.311 30.82  28.485
O 32.418 30.781 27.282
O 31.104 30.664 29.072
N 36.783 33.468 35.803
C 37.289 32.352 35.167
C 38.563 32.067 35.704
C 38.829 32.999 36.753
C 37.671 33.876 36.713
C 39.477 30.992 35.263
H 39.012 30.058 35.5  
H 39.589 31.212 34.159
H 40.495 31.212 35.615
C 40.04  33.206 37.575
H 40.215 34.155 38.002
C 40.68  32.124 38.085
H 40.432 31.071 37.732
H 41.54  32.159 38.811
N 35.133 35.605 37.122
C 36.192 35.73  37.846
C 35.983 36.801 38.773
C 34.682 37.194 38.704
C 34.204 36.483 37.532
C 36.997 37.231 39.765
H 36.576 38.02  40.384
H 37.118 36.364 40.479
H 37.999 37.537 39.428
C 33.885 38.154 39.597
H 32.95  37.692 39.863
H 34.481 38.375 40.549
C 33.529 39.431 38.919
H 32.795 40.008 39.503
H 34.468 39.967 38.752
H 33.098 39.283 37.918
N 33.028 34.946 35.284
C 32.315 35.887 35.928
C 30.911 35.877 35.52 
C 30.845 34.897 34.574
C 32.147 34.389 34.451
C 29.802 36.834 35.976
H 28.918 36.706 35.302
H 29.521 36.564 37.058
H 30.167 37.878 35.874
C 29.973 34.273 33.604
O 28.834 34.61  33.242
C 30.799 33.14  32.971
H 30.753 33.261 31.873
C 30.114 31.957 33.431
O 29.692 31.755 34.573
O 30.018 31.02  32.422
C 29.469 29.729 32.867
H 28.533 29.93  33.3  
H 29.369 29.026 32.039
H 30.084 29.19  33.576
C 29.963 30.687 28.106
H 29.954 29.735 27.567
H 29.965 31.571 27.378
C 28.563 30.742 28.803
H 28.073 31.765 28.965
C 27.969 29.644 29.348
C 28.461 28.189 29.277
H 28.244 27.7   28.333
H 29.523 28.29  29.373
H 28.102 27.696 30.154
C 26.595 29.807 30.022
H 26.315 30.836 30.19 
H 26.718 29.467 31.062
C 25.379 29.05  29.472
H 25.624 28.241 28.849
H 24.839 29.652 28.709
C 24.443 28.64  30.634
H 23.424 28.875 30.379
H 24.776 29.252 31.513
C 24.494 27.182 31.076
H 25.471 26.925 31.36 
C 24.133 26.171 29.949
H 24.137 25.148 30.253
H 23.109 26.236 29.604
H 24.822 26.325 29.105
C 23.628 26.919 32.323
H 24.148 27.61  33.083
H 23.813 25.831 32.507
C 22.174 27.298 32.323
H 21.678 26.563 32.903
H 21.754 27.328 31.311
C 21.893 28.702 33.017
H 21.374 29.291 32.239
H 22.719 29.255 33.314
C 20.846 28.661 34.218
H 20.07 27.9  33.96
C 20.146 30.042 34.324
H 19.373 29.944 35.153
H 20.919 30.726 34.599
H 19.85  30.367 33.307
C 21.466 28.42  35.642
H 20.628 28.172 36.255
H 21.96  29.289 35.999
C 22.346 27.168 35.755
H 23.244 27.522 36.277
H 22.737 26.738 34.892
C 21.883 26.044 36.685
H 20.801 25.965 36.705
H 22.029 26.475 37.633
C 22.533 24.645 36.486
H 23.633 24.857 36.414
C 22.074 23.898 35.21 
H 22.864 23.277 34.879
H 21.145 23.405 35.403
H 21.916 24.588 34.388
C 22.312 23.792 37.789
H 21.259 23.761 38.119
H 22.625 22.775 37.627
H 22.94  24.177 38.627
