137

Mg 24.952 29.12  41.926
C 23.414 26.388 40.461
C 27.415 28.755 39.539
H 28.209 28.874 38.769
C 26.786 31.685 43.417
H 27.36  32.489 43.884
C 22.736 29.139 44.551
H 21.943 29.151 45.353
N 25.384 27.776 40.146
C 24.585 26.686 39.818
C 25.071 25.921 38.589
H 25.382 24.899 38.854
C 26.501 26.681 38.343
H 26.442 27.111 37.28 
C 26.453 27.778 39.347
C 27.701 25.83  38.312
H 28.614 26.247 37.906
H 27.977 25.551 39.321
H 27.53  25.011 37.703
C 24.126 25.782 37.393
H 23.943 26.833 37.098
H 23.272 25.164 37.651
C 24.809 24.973 36.22 
H 25.856 24.709 36.261
H 24.243 24.07  36.109
C 24.785 25.665 34.828
O 25.768 25.976 34.217
O 23.499 25.721 34.446
N 26.785 30.137 41.505
C 27.62  29.809 40.459
C 28.674 30.778 40.351
C 28.487 31.652 41.42 
C 27.31  31.169 42.213
C 29.708 30.841 39.197
H 29.062 31.015 38.338
H 30.341 31.695 39.335
H 30.388 29.974 39.144
C 29.157 32.897 41.646
H 30.178 32.949 41.448
C 28.599 34.052 42.029
H 27.508 34.179 42.144
H 29.277 34.933 42.018
N 24.783 30.163 43.717
C 25.568 31.251 44.096
C 24.922 31.981 45.235
C 23.769 31.212 45.584
C 23.754 30.088 44.59 
C 25.511 33.336 45.818
H 26.417 33.794 45.357
H 24.823 34.134 45.664
H 25.853 33.143 46.866
C 22.748 31.461 46.669
H 21.83  31.799 46.269
H 22.574 30.494 47.162
C 23.238 32.441 47.751
H 24.133 31.945 48.16 
H 23.572 33.396 47.33 
H 22.558 32.643 48.619
N 23.423 28.057 42.509
C 22.531 28.153 43.564
C 21.453 27.2   43.458
C 21.748 26.55  42.241
C 22.945 27.08  41.676
C 20.368 26.872 44.402
H 20.649 25.955 45.022
H 20.234 27.657 45.064
H 19.533 26.649 43.783
C 21.311 25.474 41.385
O 20.239 24.85  41.432
C 22.365 25.275 40.264
H 21.933 25.208 39.281
C 23.07  24.061 40.586
O 23.851 23.79  41.474
O 22.82  23.197 39.548
C 23.389 21.867 39.715
H 23.034 21.211 38.887
H 24.493 22.013 39.614
H 23.104 21.322 40.621
C 23.355 25.966 33.044
H 24.234 25.352 32.624
H 23.577 27.077 32.993
C 21.976 25.661 32.558
H 21.524 24.784 32.886
C 21.297 26.431 31.679
C 21.845 27.747 31.136
H 21.517 27.736 30.12 
H 21.434 28.63  31.567
H 22.936 27.787 31.026
C 19.928 25.911 31.22 
H 19.856 24.836 31.283
H 19.702 26.011 30.17 
C 18.745 26.37  31.94 
H 18.049 26.659 31.163
H 18.972 27.263 32.517
C 18.014 25.323 32.789
H 18.784 24.752 33.276
H 17.392 24.727 32.12 
C 17.144 25.885 33.941
H 17.616 26.798 34.417
C 16.981 24.916 35.145
H 16.547 25.574 35.894
H 16.395 24.017 34.916
H 17.939 24.582 35.497
C 15.721 26.42  33.497
H 15.792 26.925 32.507
H 15.333 27.161 34.17 
C 14.613 25.42  33.237
H 14.294 24.963 34.187
H 14.962 24.676 32.613
C 13.376 26.081 32.687
H 13.759 26.926 32.149
H 12.844 26.448 33.546
C 12.414 25.316 31.653
H 13.028 24.773 30.963
C 11.619 26.33  30.805
H 10.682 26.656 31.303
H 12.199 27.212 30.722
H 11.403 26.024 29.815
C 11.482 24.343 32.386
H 10.944 24.996 33.073
H 12.095 23.746 33.015
C 10.55  23.485 31.496
H 10.67  22.516 31.969
H 10.842 23.531 30.424
C  9.076 23.839 31.528
H  8.838 24.23  30.57 
H  8.891 24.593 32.311
C  8.011 22.687 31.8  
H  8.287 22.183 32.74 
C  8.007 21.516 30.721
H  8.906 21.53  30.072
H  7.775 20.524 31.154
H  7.196 21.679 30.03 
C  6.6   23.317 31.785
H  5.894 22.454 31.758
H  6.474 23.896 32.681
H  6.522 23.968 30.951
