137

Mg 36.528 27.543 33.608
C 33.127 27.479 34.397
C 36.045 24.762 31.564
H 35.9   23.875 30.931
C 39.799 27.331 33.055
H 40.855 27.304 32.899
C 37.019 29.908 36.081
H 37.211 30.756 36.74 
N 34.772 26.342 32.984
C 33.477 26.564 33.394
C 32.489 25.566 32.652
H 31.954 24.937 33.328
C 33.422 24.669 31.706
H 33.327 24.931 30.657
C 34.827 25.269 32.074
C 33.372 23.158 31.874
H 34.046 22.538 31.299
H 33.646 22.94  32.916
H 32.391 22.726 31.657
C 31.473 26.39  31.864
H 31.848 27.003 31.058
H 30.991 27.051 32.553
C 30.427 25.571 31.109
H 30.715 25.533 30.124
H 30.341 24.556 31.422
C 28.946 25.909 31.194
O 28.033 25.161 31.272
O 28.739 27.281 31.002
N 37.7   26.429 32.365
C 37.329 25.282 31.659
C 38.442 24.705 31.034
C 39.604 25.431 31.554
C 39.101 26.464 32.334
C 38.256 23.641 30.043
H 37.364 23.873 29.455
H 39.151 23.462 29.469
H 38.037 22.709 30.595
C 41.021 25.132 31.336
H 41.735 25.919 31.354
C 41.5   23.925 31.016
H 40.86  23.021 31.023
H 42.512 23.77  30.893
N 38.113 28.471 34.439
C 39.42  28.314 34.029
C 40.275 29.237 34.693
C 39.53  29.825 35.658
C 38.134 29.375 35.465
C 41.763 29.302 34.332
H 42.107 28.973 33.387
H 41.997 30.339 34.481
H 42.37  28.849 35.089
C 40.114 30.733 36.721
H 39.831 30.266 37.694
H 41.199 30.701 36.708
C 39.615 32.193 36.777
H 40.337 32.86  37.282
H 39.512 32.644 35.784
H 38.69  32.269 37.345
N 35.46  28.492 34.93 
C 35.733 29.467 35.907
C 34.525 29.831 36.659
C 33.537 29.106 36.056
C 34.096 28.305 35.016
C 34.444 30.689 37.892
H 33.373 30.91  37.972
H 34.712 30.13  38.727
H 34.952 31.652 37.782
C 32.094 28.89  36.191
O 31.297 29.414 36.923
C 31.771 27.795 35.068
H 31.069 28.3   34.477
C 31.09  26.694 35.898
O 31.687 26.092 36.738
O 29.816 26.576 35.648
C 29.072 25.439 36.292
H 29.404 24.465 35.919
H 29.399 25.579 37.275
H 28.03  25.628 36.246
C 27.381 27.712 31.179
H 27.165 27.566 32.219
H 26.688 27.185 30.521
C 27.515 29.083 30.686
H 28.096 29.195 29.784
C 27.066 30.22  31.292
C 26.248 30.362 32.575
H 26.597 29.602 33.192
H 26.578 31.299 33.045
H 25.161 30.427 32.412
C 27.532 31.499 30.692
H 28.586 31.56  30.457
H 27.421 32.229 31.508
C 26.645 32.028 29.522
H 26.302 33.019 29.748
H 25.768 31.347 29.512
C 27.304 32.124 28.167
H 28.349 31.853 28.384
H 27.487 33.122 27.897
C 26.519 31.436 27.058
H 25.521 31.864 27.035
C 26.343 29.943 27.229
H 26.191 29.471 26.268
H 27.289 29.397 27.472
H 25.624 29.687 27.931
C 26.889 31.774 25.542
H 26.477 30.999 24.917
H 28.012 31.759 25.544
C 26.515 33.164 24.973
H 27.33  33.86  25.095
H 25.732 33.603 25.589
C 26.108 33.142 23.482
H 25.033 33.3   23.538
H 26.133 32.146 23.109
C 26.894 34.113 22.494
H 27.957 33.917 22.377
C 26.821 35.579 23.088
H 27.586 36.293 22.578
H 25.702 35.893 23.103
H 27.134 35.621 24.13 
C 26.274 34.156 21.063
H 26.929 34.808 20.58 
H 25.264 34.572 21.13 
C 26.123 32.781 20.335
H 25.07  32.495 20.46 
H 26.803 32.037 20.712
C 26.376 33.021 18.87 
H 27.286 32.487 18.672
H 26.496 34.106 18.576
C 25.326 32.494 17.926
H 24.256 32.674 18.342
C 25.218 31.001 17.81 
H 26.115 30.442 17.556
H 24.757 30.542 18.658
H 24.545 30.728 17.006
C 25.367 33.152 16.477
H 24.77  32.601 15.757
H 25.02  34.125 16.647
H 26.389 33.228 16.071
