137

Mg 21.066 31.45  32.319
C 20.388 28.015 32.202
C 17.875 31.985 33.705
H 16.919 32.058 34.23 
C 21.789 34.653 32.432
H 22.021 35.712 32.61 
C 23.987 30.766 30.637
H 24.872 30.621 30.06 
N 19.369 30.143 32.868
C 19.338 28.803 32.764
C 18.013 28.222 33.274
H 17.684 27.663 32.427
C 17.14  29.524 33.587
H 16.672 29.539 34.581
C 18.171 30.652 33.378
C 15.979 29.584 32.61 
H 16.448 29.89  31.663
H 15.575 28.591 32.561
H 15.226 30.228 32.999
C 18.319 27.307 34.609
H 18.786 27.979 35.27 
H 19.17  26.708 34.411
C 17.268 26.334 35.171
H 16.677 26.157 34.309
H 17.602 25.328 35.39 
C 16.537 26.886 36.361
O 16.579 26.396 37.474
O 15.676 27.82  35.905
N 19.962 33.072 32.929
C 18.688 33.164 33.537
C 18.404 34.55  33.949
C 19.531 35.284 33.511
C 20.448 34.322 32.862
C 17.121 34.993 34.65 
H 17.344 35.022 35.722
H 16.793 36.029 34.29 
H 16.303 34.33  34.494
C 19.776 36.705 33.705
H 20.344 37.258 32.972
C 19.382 37.45  34.819
H 18.76  37.088 35.587
H 19.633 38.542 34.853
N 22.617 32.491 31.667
C 22.788 33.815 31.812
C 24.03  34.282 31.205
C 24.62  33.149 30.714
C 23.732 32.041 31.048
C 24.522 35.677 31.126
H 24.581 35.832 30.057
H 23.868 36.3   31.589
H 25.485 35.655 31.708
C 25.979 33.036 29.967
H 25.89  32.449 29.066
H 26.308 34.011 29.531
C 27.13  32.448 30.838
H 28.051 32.245 30.287
H 27.389 33.155 31.661
H 26.854 31.445 31.324
N 22.123 29.77  31.591
C 23.22  29.631 30.804
C 23.556 28.273 30.487
C 22.4   27.591 31.025
C 21.622 28.558 31.676
C 24.764 27.735 29.775
H 25.669 28.396 29.845
H 24.889 26.709 30.119
H 24.687 27.69  28.725
C 21.777 26.304 31.192
O 22.234 25.223 30.773
C 20.514 26.486 32.056
H 20.686 25.932 32.982
C 19.468 25.856 31.222
O 18.82  26.374 30.337
O 18.998 24.693 31.806
C 17.722 24.124 31.285
H 16.98  24.786 31.733
H 17.715 24.088 30.183
H 17.569 23.134 31.679
C 14.733 28.16  36.973
H 15.197 28.35  37.959
H 13.951 27.423 36.999
C 14.006 29.387 36.352
H 13.403 29.116 35.477
C 13.839 30.594 36.911
C 14.507 31.127 38.123
H 15.208 30.488 38.548
H 15.184 32.029 37.857
H 13.833 31.396 38.942
C 12.756 31.436 36.243
H 12.466 31.028 35.285
H 13.045 32.48  36.018
C 11.54  31.589 37.186
H 11.568 32.634 37.538
H 11.621 30.898 37.999
C 10.191 31.252 36.372
H  9.674 30.507 36.958
H 10.426 30.701 35.45 
C  9.2   32.445 36.182
H  8.838 32.842 37.155
C  7.944 31.896 35.348
H  7.158 32.693 35.265
H  8.434 31.687 34.35 
H  7.486 30.945 35.687
C  9.739 33.709 35.443
H 10.124 34.321 36.259
H  8.792 34.196 35.158
C 10.602 33.606 34.161
H 10.012 33.712 33.232
H 11.025 32.652 34.222
C 11.805 34.609 34.225
H 12.735 34.079 34.095
H 11.879 35.126 35.193
C 12.012 35.711 33.176
H 11.287 36.442 33.019
C 12.346 35.124 31.765
H 13.289 34.605 31.908
H 11.471 34.506 31.45 
H 12.455 35.914 31.041
C 13.139 36.694 33.524
H 13.571 37.124 32.651
H 13.857 36.039 33.963
C 12.795 37.885 34.547
H 11.892 37.596 34.979
H 12.517 38.785 34.076
C 13.873 38.015 35.67 
H 14.723 37.282 35.53 
H 13.501 37.924 36.663
C 14.707 39.25  35.735
H 13.94  40.    35.972
C 15.353 39.459 34.385
H 14.687 39.491 33.57 
H 15.852 40.376 34.467
H 16.008 38.628 34.21 
C 15.714 39.246 36.911
H 16.485 40.042 36.748
H 15.333 39.557 37.903
H 16.25  38.357 37.05 
