137

Mg 18.68  27.407 30.592
C 20.913 26.029 32.846
C 16.947 28.646 33.226
H 16.228 28.928 34.017
C 16.589 28.993 28.556
H 15.931 29.601 27.924
C 20.35  25.998 28.01 
H 20.868 25.564 27.128
N 18.953 27.373 32.842
C 19.955 26.744 33.546
C 19.868 27.008 35.107
H 19.652 26.173 35.724
C 18.462 27.709 35.166
H 18.54  28.695 35.57 
C 18.122 27.931 33.708
C 17.412 26.921 35.963
H 17.039 26.081 35.437
H 17.853 26.554 36.891
H 16.601 27.657 36.126
C 21.068 27.817 35.6  
H 21.271 28.684 35.017
H 21.896 27.17  35.337
C 21.115 28.115 37.065
H 20.274 27.647 37.483
H 21.97  27.67  37.577
C 21.106 29.574 37.494
O 22.021 30.375 37.411
O 19.843 29.888 37.838
N 17.133 28.664 30.816
C 16.528 29.051 31.99 
C 15.445 30.015 31.785
C 15.325 29.982 30.404
C 16.441 29.21  29.838
C 14.714 30.895 32.841
H 15.478 31.039 33.576
H 14.448 31.769 32.279
H 13.821 30.383 33.212
C 14.463 30.851 29.573
H 14.828 31.134 28.645
C 13.261 31.373 29.955
H 12.627 31.058 30.788
H 12.629 31.954 29.283
N 18.462 27.424 28.619
C 17.497 28.137 27.893
C 17.701 27.937 26.462
C 18.736 27.025 26.363
C 19.217 26.733 27.69 
C 16.816 28.512 25.402
H 17.466 29.166 24.784
H 16.477 27.686 24.842
H 15.91  29.006 25.738
C 19.239 26.367 25.062
H 19.502 25.3   25.298
H 18.498 26.348 24.266
C 20.511 27.012 24.592
H 21.152 27.035 25.46 
H 21.082 26.526 23.711
H 20.328 28.083 24.35 
N 20.321 26.233 30.392
C 20.826 25.609 29.26 
C 21.88  24.645 29.637
C 21.939 24.834 31.051
C 20.995 25.799 31.451
C 22.756 23.777 28.69 
H 22.047 23.344 27.857
H 23.647 24.241 28.207
H 23.101 22.948 29.29 
C 22.587 24.282 32.228
O 23.387 23.373 32.299
C 22.055 25.149 33.457
H 22.902 25.679 33.819
C 21.589 24.219 34.536
O 20.821 23.256 34.476
O 21.97  24.761 35.749
C 21.279 24.159 36.907
H 21.601 24.646 37.831
H 20.211 24.364 36.837
H 21.265 23.052 36.945
C 19.664 31.315 38.151
H 20.145 32.01  37.432
H 19.873 31.56  39.198
C 18.136 31.395 38.03 
H 17.663 31.201 38.951
C 17.388 31.662 36.942
C 17.987 31.861 35.59 
H 17.629 31.017 34.959
H 17.564 32.683 34.985
H 19.093 31.917 35.645
C 15.865 31.432 36.903
H 15.577 30.796 37.759
H 15.594 30.871 36.01 
C 14.961 32.63  37.14 
H 15.448 33.543 37.527
H 14.145 32.377 37.844
C 14.291 33.173 35.831
H 14.281 32.455 34.944
H 14.829 33.968 35.427
C 12.839 33.702 35.978
H 12.599 34.261 36.904
C 11.821 32.467 35.923
H 12.007 31.793 35.097
H 12.081 31.929 36.83 
H 10.772 32.782 35.903
C 12.494 34.79  34.833
H 11.41  34.821 34.865
H 12.759 34.269 33.889
C 13.124 36.211 35.02 
H 13.288 36.356 36.131
H 12.275 36.831 34.672
C 14.349 36.495 34.141
H 14.128 37.362 33.559
H 14.609 35.591 33.653
C 15.734 36.822 34.792
H 16.181 35.962 35.296
C 15.589 37.951 35.835
H 15.192 38.875 35.329
H 14.89  37.724 36.634
H 16.521 38.184 36.345
C 16.833 37.225 33.767
H 17.728 37.599 34.216
H 16.416 38.086 33.237
C 17.214 36.044 32.899
H 17.079 35.168 33.495
H 18.287 36.011 32.739
C 16.486 36.101 31.535
H 17.26  36.482 30.837
H 15.738 36.901 31.552
C 15.863 34.791 30.956
H 15.399 34.198 31.773
C 16.869 33.803 30.371
H 17.473 34.311 29.649
H 17.514 33.547 31.18 
H 16.405 32.845 30.09 
C 14.878 35.182 29.839
H 14.362 34.211 29.682
H 14.157 36.025 30.081
H 15.423 35.368 28.936
