137

Mg 34.186 29.763 35.358
C 31.01  29.35  34.166
C 35.33  27.565 32.797
H 35.736 26.986 31.981
C 37.366 30.163 36.424
H 38.371 30.241 36.73 
C 33.018 31.454 38.094
H 32.648 32.102 38.851
N 33.311 28.668 33.618
C 31.917 28.644 33.368
C 31.59  27.642 32.22 
H 30.944 26.88  32.626
C 32.997 27.069 31.845
H 33.129 27.326 30.772
C 33.966 27.83  32.817
C 33.167 25.517 31.705
H 34.129 25.223 31.241
H 33.175 24.943 32.66 
H 32.372 25.13  31.088
C 30.845 28.297 31.043
H 31.529 28.948 30.465
H 30.08  28.958 31.434
C 30.275 27.302 30.009
H 30.519 27.763 28.995
H 30.59  26.259 30.079
C 28.744 27.081 30.046
O 28.261 26.107 30.694
O 27.987 28.112 29.493
N 36.095 28.929 34.784
C 36.328 28.101 33.696
C 37.769 27.781 33.735
C 38.367 28.527 34.679
C 37.283 29.295 35.281
C 38.513 26.933 32.791
H 37.87  26.359 32.115
H 39.095 27.626 32.095
H 39.118 26.263 33.345
C 39.783 28.414 35.039
H 40.428 28.311 34.18 
C 40.375 28.366 36.26 
H 39.841 28.452 37.194
H 41.504 28.303 36.335
N 35.035 30.642 37.021
C 36.371 30.709 37.24 
C 36.589 31.258 38.505
C 35.336 31.69  38.954
C 34.411 31.246 37.996
C 37.986 31.425 39.062
H 37.932 32.007 39.988
H 38.385 30.455 39.341
H 38.595 32.063 38.367
C 34.99  32.338 40.233
H 33.908 32.143 40.528
H 35.653 31.987 41.092
C 35.222 33.841 40.263
H 34.59  34.409 39.695
H 35.155 34.119 41.271
H 36.216 34.098 40.051
N 32.448 30.286 36.008
C 32.043 30.94  37.166
C 30.615 31.089 37.216
C 30.198 30.434 36.063
C 31.342 30.015 35.337
C 29.726 31.647 38.22 
H 30.267 31.922 39.108
H 29.249 32.569 37.837
H 28.978 30.964 38.511
C 29.048 30.04  35.367
O 27.842 30.196 35.591
C 29.507 29.236 34.12 
H 28.966 29.727 33.36 
C 28.94  27.872 34.364
O 29.22  27.075 35.255
O 27.858 27.571 33.52 
C 27.136 26.298 33.719
H 26.599 26.488 34.608
H 26.425 26.233 32.869
H 27.667 25.38  33.777
C 26.549 28.078 29.902
H 26.58  28.059 31.009
H 26.001 27.106 29.744
C 25.937 29.356 29.306
H 26.597 30.214 29.132
C 24.617 29.512 28.995
C 23.494 28.557 29.485
H 23.149 27.994 28.604
H 23.826 27.968 30.344
H 22.7   29.261 29.8  
C 24.233 30.827 28.508
H 25.156 31.425 28.267
H 23.741 31.249 29.408
C 23.462 30.872 27.127
H 23.174 29.884 26.793
H 24.097 31.262 26.407
C 22.357 31.939 27.15 
H 22.412 32.5   26.194
H 22.56  32.55  27.915
C 20.92  31.375 27.209
H 20.859 30.706 28.079
C 20.646 30.586 25.916
H 19.646 30.186 25.741
H 20.816 31.133 24.969
H 21.337 29.789 25.853
C 19.846 32.477 27.436
H 18.852 32.027 27.29 
H 19.958 33.079 26.582
C 19.881 33.037 28.877
H 20.382 32.435 29.622
H 18.866 33.093 29.187
C 20.397 34.515 28.862
H 19.57  35.16  28.543
H 21.247 34.597 28.139
C 21.062 34.976 30.18 
H 21.886 34.272 30.431
C 20.154 34.891 31.475
H 19.742 33.918 31.397
H 20.814 34.861 32.348
H 19.418 35.667 31.468
C 21.648 36.419 30.114
H 21.819 36.717 31.13 
H 20.855 37.101 29.826
C 22.904 36.411 29.288
H 22.478 36.782 28.34 
H 23.383 35.485 29.054
C 23.92  37.46  29.769
H 23.571 37.813 30.765
H 23.921 38.306 29.127
C 25.423 37.081 29.815
H 25.658 36.635 28.884
C 25.803 36.    30.877
H 25.804 36.485 31.885
H 25.222 35.143 30.866
H 26.813 35.78  30.646
C 26.403 38.234 30.116
H 27.401 37.904 30.339
H 26.408 38.982 29.332
H 26.179 38.813 30.992
