137

Mg 28.698 28.392 32.457
C 26.925 25.736 31.062
C 29.743 29.211 29.398
H 29.947 29.54  28.378
C 30.426 30.808 33.878
H 31.077 31.438 34.48 
C 27.809 27.07  35.565
H 27.602 26.579 36.548
N 28.332 27.632 30.488
C 27.555 26.549 30.172
C 27.474 26.382 28.63 
H 27.83  25.379 28.454
C 28.43 27.43 28.1 
H 27.856 28.093 27.505
C 28.854 28.142 29.405
C 29.618 26.808 27.261
H 30.167 26.07  27.751
H 29.348 26.421 26.275
H 30.312 27.628 27.017
C 26.042 26.427 28.119
H 25.629 27.483 28.144
H 25.412 25.887 28.861
C 25.893 25.987 26.673
H 25.405 26.814 26.161
H 26.816 25.85  26.172
C 25.155 24.685 26.34 
O 25.728 23.611 26.035
O 23.803 24.859 26.4  
N 29.827 29.908 31.743
C 30.244 29.963 30.43 
C 31.249 31.059 30.314
C 31.478 31.503 31.651
C 30.578 30.828 32.502
C 31.844 31.562 28.977
H 31.908 32.679 28.88 
H 32.879 31.309 28.88 
H 31.325 31.181 28.119
C 32.415 32.536 32.185
H 32.299 32.687 33.259
C 33.395 33.217 31.613
H 33.631 33.173 30.524
H 33.991 33.804 32.273
N 28.992 28.844 34.322
C 29.751 29.907 34.72 
C 29.923 29.974 36.193
C 29.137 28.947 36.634
C 28.595 28.232 35.465
C 30.736 30.933 37.016
H 31.523 30.453 37.555
H 30.97  31.786 36.444
H 29.963 31.214 37.743
C 28.951 28.495 38.084
H 29.115 27.388 38.105
H 29.669 29.065 38.686
C 27.578 28.834 38.697
H 27.491 28.274 39.68 
H 27.573 29.906 38.709
H 26.904 28.511 37.952
N 27.537 26.809 33.224
C 27.253 26.395 34.5  
C 26.51  25.171 34.508
C 26.429 24.871 33.184
C 27.02  25.884 32.412
C 26.054 24.376 35.772
H 26.328 23.33  35.674
H 26.563 24.789 36.699
H 24.963 24.495 35.954
C 25.967 23.803 32.292
O 25.36  22.76  32.502
C 26.375 24.274 30.844
H 25.502 24.18  30.27 
C 27.354 23.236 30.422
O 28.347 22.885 31.055
O 27.091 22.77  29.117
C 28.103 21.846 28.528
H 28.099 20.921 29.118
H 27.871 21.66  27.465
H 29.124 22.283 28.622
C 23.019 23.639 26.331
H 23.488 22.868 26.909
H 22.942 23.437 25.224
C 21.589 23.781 26.911
H 20.842 24.237 26.235
C 21.174 23.393 28.14 
C 22.101 22.707 29.137
H 22.365 21.727 28.684
H 23.052 23.23  29.216
H 21.593 22.533 30.132
C 19.755 23.765 28.66 
H 19.265 24.424 27.957
H 19.966 24.374 29.579
C 18.834 22.568 28.959
H 18.833 22.646 30.081
H 19.363 21.663 28.597
C 17.359 22.667 28.313
H 17.388 23.497 27.594
H 16.627 23.127 29.039
C 16.744 21.43  27.612
H 17.564 21.145 26.926
C 15.503 21.73  26.757
H 14.672 22.008 27.364
H 15.678 22.545 26.102
H 15.275 20.802 26.141
C 16.576 20.228 28.585
H 17.606 19.931 28.923
H 16.14  19.471 27.981
C 15.604 20.321 29.779
H 15.039 19.375 29.913
H 14.907 21.148 29.577
C 16.319 20.555 31.116
H 17.281 20.9   30.896
H 16.352 19.632 31.675
C 15.77  21.673 32.049
H 15.737 22.6   31.452
C 16.61 21.8  33.35
H 16.565 20.94  34.006
H 17.643 21.914 33.056
H 16.209 22.685 33.845
C 14.285 21.585 32.323
H 14.307 20.735 33.119
H 13.689 21.235 31.443
C 13.534 22.767 32.839
H 12.782 23.124 32.205
H 14.27  23.561 32.904
C 12.807 22.576 34.274
H 13.12  21.616 34.763
H 11.766 22.567 34.077
C 13.107 23.705 35.348
H 14.174 23.536 35.549
C 12.356 23.422 36.704
H 12.643 24.214 37.423
H 11.306 23.563 36.495
H 12.517 22.5   37.214
C 12.926 25.104 34.778
H 11.961 25.117 34.301
H 12.995 25.768 35.592
H 13.732 25.435 34.055
