137

Mg 20.074 18.965 22.707
C 23.432 19.358 21.77 
C 20.471 21.744 24.805
H 20.627 22.417 25.596
C 16.849 18.811 23.514
H 15.806 18.668 23.843
C 19.852 16.379 20.582
H 19.629 15.458 20.009
N 21.739 20.314 23.177
C 23.02  20.347 22.661
C 23.839 21.586 23.096
H 24.742 21.279 23.533
C 22.992 22.172 24.306
H 22.812 23.251 24.063
C 21.669 21.399 24.021
C 23.568 21.932 25.758
H 23.93  22.788 26.356
H 22.823 21.574 26.451
H 24.355 21.247 25.702
C 24.059 22.524 21.861
H 23.052 22.765 21.524
H 24.633 21.973 21.101
C 24.64  23.885 22.201
H 24.874 23.954 23.269
H 25.501 24.026 21.62 
C 23.761 25.1   21.879
O 23.197 25.352 20.822
O 23.865 26.012 22.927
N 18.844 20.107 24.007
C 19.184 21.2   24.805
C 17.925 21.617 25.485
C 16.94  20.607 25.217
C 17.505 19.849 24.18 
C 17.897 22.813 26.398
H 17.918 22.453 27.343
H 18.639 23.588 26.208
H 16.943 23.297 26.242
C 15.528 20.502 25.751
H 14.853 19.777 25.215
C 14.98  21.155 26.756
H 15.577 21.938 27.237
H 13.924 21.08  27.144
N 18.604 17.909 22.076
C 17.346 17.94  22.59 
C 16.533 16.901 22.011
C 17.375 16.242 21.102
C 18.66  16.861 21.219
C 15.004 16.606 22.172
H 14.446 17.462 22.533
H 14.554 16.162 21.277
H 15.019 15.85  22.913
C 17.072 14.929 20.369
H 17.648 14.107 20.844
H 16.051 14.689 20.552
C 17.332 15.002 18.85 
H 16.797 14.176 18.379
H 16.735 15.84  18.534
H 18.346 14.874 18.549
N 21.301 18.086 21.409
C 21.11  16.987 20.653
C 22.335 16.682 19.903
C 23.248 17.605 20.287
C 22.573 18.37  21.256
C 22.514 15.658 18.775
H 21.744 14.872 18.613
H 22.724 16.108 17.849
H 23.44  15.159 18.982
C 24.581 17.972 20.213
O 25.444 17.47  19.561
C 24.752 19.224 21.019
H 24.9   19.956 20.323
C 25.858 18.948 21.983
O 25.76  18.268 22.968
O 26.972 19.706 21.607
C 27.992 19.617 22.683
H 28.467 18.676 22.552
H 28.732 20.398 22.398
H 27.547 19.737 23.685
C 23.336 27.325 22.669
H 22.298 27.146 22.534
H 23.732 27.873 21.788
C 23.575 28.192 23.913
H 22.78  28.813 24.382
C 24.74  28.264 24.627
C 26.086 27.789 24.064
H 26.059 27.515 23.001
H 26.875 28.622 24.13 
H 26.394 26.919 24.651
C 24.844 29.232 25.756
H 25.442 28.754 26.484
H 23.861 29.156 26.307
C 25.369 30.686 25.576
H 26.228 30.794 24.939
H 25.595 31.1   26.624
C 24.304 31.55  24.895
H 23.355 31.069 24.771
H 24.605 31.771 23.923
C 23.955 32.943 25.486
H 24.909 33.472 25.78 
C 23.107 32.749 26.75 
H 22.117 32.665 26.467
H 23.474 31.833 27.28 
H 23.193 33.663 27.442
C 23.35  33.959 24.539
H 23.107 34.857 25.179
H 22.355 33.554 24.243
C 24.172 34.248 23.267
H 23.555 33.668 22.556
H 25.24  33.938 23.376
C 24.261 35.783 22.941
H 25.212 35.957 22.393
H 24.227 36.348 23.867
C 23.132 36.399 22.036
H 23.325 35.837 21.111
C 23.314 37.932 21.696
H 22.732 38.298 20.893
H 23.071 38.607 22.57 
H 24.426 37.956 21.459
C 21.637 36.195 22.626
H 21.583 36.702 23.594
H 21.443 35.093 22.671
C 20.582 36.645 21.571
H 19.865 35.907 21.428
H 20.976 36.736 20.545
C 19.855 37.956 21.983
H 20.518 38.51  22.582
H 18.909 37.843 22.541
C 19.551 38.929 20.805
H 20.489 39.312 20.432
C 18.893 40.295 21.416
H 19.6   40.757 22.07 
H 18.677 40.93  20.597
H 18.017 40.019 22.044
C 18.62  38.309 19.745
H 19.16  37.461 19.303
H 17.645 38.076 20.162
H 18.442 38.879 18.906
