137

Mg 20.285 26.573 30.472
C 22.985 24.576 29.317
C 22.576 28.545 32.207
H 23.322 29.159 32.768
C 17.984 28.787 31.283
H 17.171 29.566 31.422
C 18.191 24.933 28.378
H 17.489 24.57  27.65 
N 22.462 26.522 30.781
C 23.364 25.722 30.103
C 24.796 26.147 30.418
H 25.382 25.271 30.81 
C 24.646 27.086 31.649
H 25.09  28.083 31.512
C 23.102 27.397 31.562
C 25.001 26.492 33.034
H 26.072 26.243 33.147
H 24.713 27.267 33.721
H 24.364 25.571 33.176
C 25.487 26.624 29.156
H 24.937 27.515 28.854
H 25.429 25.989 28.289
C 27.005 26.997 29.312
H 27.347 26.726 30.281
H 27.601 26.412 28.548
C 27.308 28.413 29.067
O 27.606 28.933 27.993
O 27.196 29.185 30.203
N 20.195 28.285 31.702
C 21.27  28.962 32.27 
C 20.839 30.18  32.856
C 19.484 30.287 32.615
C 19.147 29.063 31.862
C 21.666 31.077 33.726
H 21.108 31.511 34.593
H 22.446 30.476 34.171
H 22.337 31.705 33.2  
C 18.49  31.281 33.039
H 17.489 30.885 32.932
C 18.736 32.567 33.264
H 19.786 33.022 33.208
H 17.911 33.18  33.558
N 18.371 26.694 30.085
C 17.541 27.723 30.513
C 16.223 27.563 29.928
C 16.352 26.476 29.031
C 17.637 25.94  29.195
C 15.164 28.61  29.997
H 15.23  29.105 30.957
H 15.209 29.329 29.177
H 14.216 28.1   30.063
C 15.25  26.04  28.044
H 14.488 26.831 27.906
H 15.636 25.715 27.043
C 14.473 24.867 28.528
H 14.042 24.878 29.542
H 13.654 24.648 27.876
H 15.108 24.014 28.677
N 20.492 24.973 29.258
C 19.51  24.407 28.427
C 20.119 23.324 27.589
C 21.482 23.284 27.993
C 21.671 24.32  28.982
C 19.463 22.476 26.579
H 19.276 22.847 25.562
H 20.093 21.616 26.457
H 18.563 22.212 27.164
C 22.782 22.687 27.727
O 23.155 21.868 26.917
C 23.732 23.422 28.746
H 24.692 23.6   28.244
C 24.043 22.509 29.847
O 23.205 21.758 30.396
O 25.399 22.431 29.99 
C 25.839 21.267 30.764
H 25.433 21.147 31.768
H 25.735 20.342 30.259
H 26.916 21.305 30.918
C 27.611 30.576 30.121
H 27.294 30.907 29.158
H 28.678 30.588 30.351
C 26.891 31.359 31.177
H 27.098 31.004 32.205
C 26.032 32.353 31.017
C 25.506 32.901 29.765
H 26.01  33.88  29.582
H 25.738 32.272 28.969
H 24.383 32.944 29.657
C 25.459 33.068 32.257
H 25.426 32.5   33.114
H 24.351 33.023 32.083
C 25.985 34.487 32.487
H 26.792 34.536 31.697
H 26.551 34.715 33.431
C 24.939 35.552 32.13 
H 24.187 35.136 31.401
H 25.473 36.23  31.525
C 24.289 36.292 33.326
H 25.062 36.655 33.983
C 23.385 35.306 34.165
H 24.06  34.509 34.482
H 23.017 35.804 35.109
H 22.567 34.894 33.545
C 23.432 37.556 33.001
H 22.952 37.867 33.928
H 22.623 37.279 32.282
C 24.164 38.756 32.411
H 24.391 38.592 31.374
H 25.126 38.948 32.94 
C 23.317 39.98  32.518
H 23.879 40.724 33.023
H 22.586 39.814 33.295
C 22.802 40.669 31.193
H 22.425 39.803 30.679
C 23.883 41.184 30.227
H 24.656 40.392 30.026
H 23.471 41.482 29.258
H 24.332 42.101 30.602
C 21.684 41.686 31.336
H 22.25  42.491 31.735
H 20.927 41.508 32.14 
C 20.855 42.106 30.084
H 19.775 42.085 30.46 
H 20.967 41.292 29.408
C 21.266 43.44  29.533
H 22.073 43.809 30.126
H 20.394 44.012 29.721
C 21.623 43.44  27.986
H 22.454 42.755 27.77 
C 22.073 44.836 27.61 
H 22.58  44.847 26.646
H 21.181 45.475 27.601
H 22.895 45.279 28.121
C 20.402 43.083 27.092
H 19.493 43.194 27.707
H 20.322 43.716 26.151
H 20.599 42.049 26.672
