137

Mg 20.043 23.86  29.059
C 22.657 24.132 31.294
C 18.763 26.651 30.502
H 18.28  27.548 30.922
C 17.189 23.43  27.359
H 16.271 23.388 26.774
C 21.151 20.747 28.149
H 21.559 19.756 27.975
N 20.806 25.42  30.448
C 21.923 25.28  31.239
C 22.127 26.589 32.096
H 22.158 26.426 33.204
C 20.775 27.356 31.859
H 20.821 28.255 31.287
C 20.047 26.406 30.884
C 20.013 27.541 33.181
H 19.09  28.027 32.959
H 19.878 26.562 33.545
H 20.561 28.19  33.879
C 23.392 27.481 31.661
H 23.396 27.767 30.655
H 24.248 26.873 31.84 
C 23.578 28.64  32.596
H 22.66  29.005 32.972
H 24.254 28.346 33.334
C 24.345 29.931 32.029
O 25.504 30.203 32.318
O 23.405 30.842 31.467
N 18.364 24.988 28.838
C 18.006 26.12  29.509
C 16.653 26.537 29.111
C 16.263 25.586 28.106
C 17.304 24.664 28.042
C 15.879 27.659 29.698
H 14.954 27.78  29.132
H 15.553 27.371 30.63 
H 16.434 28.664 29.591
C 14.978 25.572 27.428
H 14.122 25.883 27.952
C 14.816 25.338 26.124
H 15.702 25.242 25.451
H 13.847 25.413 25.576
N 19.261 22.283 27.951
C 18.062 22.318 27.294
C 17.918 21.065 26.582
C 19.083 20.299 26.759
C 19.905 21.134 27.572
C 16.704 20.706 25.729
H 16.412 19.705 26.043
H 15.836 21.37  25.84 
H 16.921 20.517 24.658
C 19.455 19.052 25.978
H 19.808 18.337 26.773
H 18.603 18.559 25.5  
C 20.628 19.198 25.027
H 20.774 18.257 24.518
H 20.46  19.98  24.322
H 21.556 19.366 25.577
N 21.571 22.726 29.456
C 21.952 21.465 29.059
C 23.191 21.085 29.666
C 23.542 22.075 30.589
C 22.532 23.024 30.401
C 24.093 19.852 29.385
H 24.589 19.432 30.294
H 23.503 19.185 28.838
H 24.953 20.271 28.798
C 24.48  22.544 31.574
O 25.592 22.167 31.94 
C 23.894 23.883 32.159
H 24.546 24.692 32.008
C 23.61  23.541 33.557
O 23.072 22.503 33.949
O 24.102 24.576 34.362
C 24.028 24.23  35.794
H 24.726 23.413 36.059
H 24.383 24.997 36.483
H 23.064 23.945 36.146
C 24.081 32.119 31.209
H 24.862 32.014 30.527
H 24.556 32.439 32.11 
C 22.982 33.021 30.787
H 22.453 32.678 29.898
C 22.418 34.049 31.526
C 22.992 34.665 32.766
H 22.969 35.689 32.487
H 22.327 34.46  33.603
H 24.011 34.406 32.874
C 21.16  34.606 31.041
H 20.913 34.242 30.057
H 21.456 35.645 30.919
C 19.901 34.515 31.961
H 20.228 33.968 32.774
H 19.21  33.869 31.369
C 19.355 35.823 32.611
H 19.768 36.606 31.938
H 19.835 35.897 33.6  
C 17.802 36.036 32.746
H 17.56  35.351 33.394
C 17.041 35.718 31.391
H 17.628 36.139 30.602
H 16.893 34.643 31.255
H 16.102 36.268 31.319
C 17.379 37.446 33.236
H 16.258 37.531 33.19 
H 17.692 38.119 32.497
C 17.868 37.783 34.668
H 18.289 36.942 35.286
H 16.951 38.042 35.206
C 18.957 38.913 34.609
H 18.57  39.835 35.157
H 19.119 39.095 33.548
C 20.321 38.557 35.266
H 20.618 37.526 34.995
C 20.228 38.567 36.827
H 21.127 38.258 37.37 
H 20.099 39.598 37.131
H 19.373 38.212 37.264
C 21.569 39.317 34.677
H 22.391 39.191 35.342
H 21.413 40.406 34.821
C 21.89  39.112 33.165
H 21.354 38.207 32.95 
H 22.899 38.824 33.056
C 21.553 40.27  32.273
H 22.417 40.936 32.157
H 20.877 40.947 32.863
C 20.803 39.988 30.926
H 19.816 39.478 31.116
C 21.628 39.314 29.944
H 21.061 39.058 29.071
H 22.46  40.013 29.791
H 22.027 38.439 30.317
C 20.51  41.407 30.342
H 21.444 41.904 30.08 
H 19.862 41.158 29.491
H 20.    42.027 31.047
