137

Mg 35.767 31.764 35.25 
C 34.023 29.262 33.717
C 38.395 31.216 32.979
H 39.174 31.125 32.256
C 37.562 34.1   36.908
H 38.23  34.665 37.533
C 33.314 31.915 37.689
H 32.647 31.759 38.508
N 36.208 30.389 33.615
C 35.293 29.46  33.105
C 35.712 28.896 31.767
H 35.64  27.809 31.654
C 37.299 29.267 31.785
H 37.682 29.704 30.857
C 37.281 30.429 32.785
C 38.225 28.163 32.155
H 37.761 27.696 33.05 
H 38.285 27.313 31.436
H 39.243 28.484 32.377
C 34.924 29.584 30.61 
H 35.423 30.567 30.552
H 33.916 29.867 30.892
C 35.08  28.893 29.242
H 35.747 29.534 28.662
H 35.543 27.969 29.385
C 33.84  28.626 28.418
O 33.71  28.845 27.226
O 32.913 27.826 29.113
N 37.585 32.618 34.875
C 38.55  32.227 33.946
C 39.751 33.002 34.148
C 39.418 33.896 35.204
C 38.139 33.535 35.709
C 40.939 32.925 33.175
H 40.855 32.072 32.503
H 41.153 33.87  32.623
H 41.749 32.703 33.814
C 40.223 35.041 35.758
H 39.721 35.675 36.552
C 41.537 35.327 35.42 
H 41.989 34.778 34.607
H 42.239 36.112 35.907
N 35.477 32.838 37.029
C 36.37  33.751 37.528
C 35.818 34.253 38.707
C 34.524 33.722 38.851
C 34.426 32.735 37.868
C 36.545 35.251 39.644
H 35.832 35.813 40.263
H 37.193 34.639 40.268
H 37.236 35.933 39.127
C 33.582 33.941 39.998
H 33.104 33.038 40.393
H 34.064 34.459 40.798
C 32.333 34.608 39.566
H 31.728 33.986 38.906
H 31.767 34.861 40.43 
H 32.723 35.537 39.126
N 33.979 30.81  35.677
C 33.082 31.004 36.702
C 32.013 30.003 36.525
C 32.312 29.331 35.374
C 33.552 29.813 34.915
C 30.773 29.83  37.316
H 30.468 28.85  37.418
H 31.036 30.223 38.367
H 29.977 30.298 36.766
C 31.866 28.332 34.35 
O 30.947 27.552 34.287
C 32.884 28.388 33.287
H 32.403 28.852 32.449
C 33.278 26.967 33.102
O 33.758 26.255 33.964
O 33.249 26.599 31.767
C 33.47  25.145 31.585
H 32.835 24.677 32.358
H 33.079 24.823 30.661
H 34.529 24.888 31.703
C 31.928 27.145 28.224
H 32.453 26.261 27.847
H 31.543 27.799 27.38 
C 30.716 26.807 29.081
H 30.46  27.515 29.837
C 29.94  25.717 28.984
C 30.019 24.646 27.886
H 30.836 25.037 27.314
H 30.335 23.652 28.361
H 29.135 24.654 27.285
C 28.866 25.494 30.032
H 29.252 25.991 30.904
H 28.689 24.445 30.127
C 27.561 26.211 29.621
H 27.239 25.565 28.857
H 27.672 27.197 29.238
C 26.503 26.273 30.705
H 26.31  27.286 30.837
H 26.906 25.874 31.616
C 25.136 25.53  30.369
H 25.366 24.488 30.308
C 24.218 26.091 29.253
H 23.35  25.371 29.266
H 23.933 27.178 29.238
H 24.824 25.989 28.32 
C 24.259 25.409 31.678
H 24.833 24.879 32.401
H 23.36  24.832 31.528
C 23.779 26.781 32.222
H 22.666 26.877 32.197
H 24.112 27.614 31.576
C 24.343 27.22  33.578
H 24.797 28.155 33.294
H 25.031 26.563 34.042
C 23.22  27.587 34.675
H 22.441 28.087 34.225
C 23.828 28.418 35.869
H 23.801 29.48  35.604
H 23.178 28.235 36.785
H 24.743 28.034 36.202
C 22.585 26.333 35.261
H 23.377 25.775 35.847
H 22.426 25.642 34.422
C 21.171 26.596 35.875
H 20.53  26.073 35.186
H 20.843 27.581 35.868
C 20.996 26.159 37.306
H 20.722 26.983 37.913
H 21.922 25.826 37.648
C 19.956 25.027 37.613
H 20.178 24.191 36.893
C 18.478 25.459 37.433
H 17.886 24.53  37.665
H 18.334 26.181 38.233
H 18.178 25.762 36.436
C 20.272 24.508 39.011
H 19.635 23.629 39.126
H 21.274 24.132 38.833
H 20.143 25.352 39.685
