137

Mg 30.136 28.135 33.198
C 27.931 26.074 31.549
C 32.147 28.117 30.378
H 32.775 28.13  29.489
C 32.35  30.021 34.784
H 32.929 30.732 35.277
C 28.107 28.084 35.887
H 27.376 28.041 36.714
N 30.067 27.144 31.214
C 28.996 26.403 30.71 
C 29.162 26.189 29.258
H 28.97  25.097 29.05 
C 30.614 26.591 28.974
H 30.533 27.335 28.176
C 30.985 27.324 30.259
C 31.53  25.425 28.604
H 31.524 24.699 29.423
H 31.112 25.032 27.708
H 32.533 25.797 28.355
C 28.151 26.999 28.424
H 28.446 28.033 28.39 
H 27.183 26.918 28.899
C 27.788 26.427 27.039
H 28.132 27.097 26.219
H 28.246 25.51  26.833
C 26.352 26.33  26.612
O 25.791 26.703 25.608
O 25.624 25.718 27.651
N 31.925 28.978 32.651
C 32.577 28.895 31.455
C 33.748 29.756 31.43 
C 33.858 30.197 32.732
C 32.692 29.734 33.52 
C 34.662 29.988 30.292
H 35.35  30.848 30.3  
H 35.258 29.04  30.418
H 34.228 29.945 29.267
C 34.906 31.087 33.325
H 34.567 31.711 34.156
C 36.205 31.246 33.003
H 36.693 30.675 32.19 
H 36.858 31.897 33.595
N 30.229 28.892 35.072
C 31.214 29.701 35.499
C 30.845 30.226 36.832
C 29.576 29.641 37.193
C 29.248 28.857 36.034
C 31.768 31.063 37.673
H 31.295 31.973 37.856
H 32.057 30.515 38.618
H 32.679 31.389 37.157
C 28.804 29.882 38.452
H 28.368 28.908 38.796
H 29.495 30.248 39.264
C 27.533 30.667 38.282
H 27.133 31.022 39.235
H 27.705 31.582 37.719
H 26.721 30.063 37.895
N 28.385 27.285 33.659
C 27.648 27.318 34.821
C 26.514 26.452 34.743
C 26.611 25.908 33.485
C 27.667 26.498 32.819
C 25.517 26.271 35.835
H 25.982 26.216 36.788
H 25.013 27.233 36.026
H 24.836 25.421 35.665
C 25.926 25.087 32.593
O 24.823 24.546 32.697
C 26.777 25.179 31.282
H 26.143 25.512 30.476
C 27.096 23.743 31.074
O 27.736 23.053 31.875
O 26.525 23.263 29.886
C 26.628 21.762 29.869
H 27.673 21.449 29.776
H 26.111 21.34  30.693
H 26.134 21.556 28.934
C 24.15  25.458 27.37 
H 23.849 25.085 26.376
H 23.716 26.437 27.531
C 23.749 24.588 28.507
H 23.713 25.107 29.471
C 23.395 23.241 28.45 
C 23.621 22.509 27.167
H 24.161 23.042 26.347
H 24.179 21.62  27.344
H 22.704 22.162 26.61 
C 22.881 22.494 29.686
H 22.813 23.183 30.537
H 23.655 21.716 29.934
C 21.577 21.712 29.484
H 21.723 20.637 29.796
H 21.232 21.717 28.449
C 20.354 22.422 30.216
H 20.738 22.952 31.038
H 19.638 21.836 30.652
C 19.647 23.371 29.197
H 20.355 23.634 28.398
C 19.201 24.748 29.679
H 18.458 24.576 30.414
H 19.951 25.256 30.121
H 18.731 25.323 28.868
C 18.384 22.722 28.475
H 18.787 21.872 27.837
H 18.029 23.448 27.757
C 17.104 22.268 29.281
H 16.277 22.936 29.065
H 17.251 22.255 30.352
C 16.718 20.815 28.893
H 17.461 20.289 28.257
H 15.814 20.991 28.288
C 16.367 19.879 30.068
H 17.112 20.032 30.826
C 16.449 18.419 29.576
H 16.191 17.663 30.313
H 15.696 18.431 28.692
H 17.415 18.222 29.246
C 14.954 20.114 30.584
H 14.298 19.928 29.745
H 14.879 21.132 30.928
C 14.62  19.302 31.866
H 14.498 20.092 32.645
H 15.428 18.637 32.143
C 13.364 18.454 31.732
H 13.698 17.441 31.948
H 12.948 18.533 30.72 
C 12.226 18.751 32.686
H 12.709 18.873 33.709
C 11.202 17.663 32.765
H 10.62  17.565 31.884
H 11.851 16.76  32.896
H 10.601 17.881 33.642
C 11.532 20.105 32.302
H 11.242 20.049 31.253
H 10.655 20.173 32.895
H 12.162 20.984 32.396
