137

Mg 20.33  18.59  22.979
C 21.839 21.462 21.644
C 19.771 20.368 25.79 
H 19.533 20.94  26.701
C 18.388 16.038 24.088
H 17.918 15.155 24.559
C 20.487 17.131 19.934
H 20.57  16.717 18.896
N 20.672 20.71  23.551
C 21.386 21.669 22.919
C 21.334 23.041 23.592
H 22.387 23.369 23.671
C 20.925 22.581 25.036
H 19.953 23.029 25.198
C 20.4   21.125 24.797
C 21.901 22.72  26.227
H 22.447 23.69  26.159
H 21.451 22.654 27.158
H 22.634 21.937 26.248
C 20.431 24.143 23.01 
H 19.397 23.827 23.009
H 20.691 24.348 21.989
C 20.524 25.439 23.879
H 19.641 26.026 23.784
H 20.637 25.297 24.998
C 21.708 26.297 23.502
O 22.855 25.879 23.178
O 21.349 27.653 23.415
N 19.287 18.256 24.66 
C 19.246 19.063 25.757
C 18.461 18.479 26.817
C 18.066 17.169 26.307
C 18.56  17.13  24.969
C 18.1   19.198 28.176
H 17.891 20.253 27.993
H 17.267 18.779 28.685
H 18.922 19.163 28.898
C 17.205 16.179 26.948
H 16.627 15.606 26.279
C 17.024 16.016 28.254
H 17.688 16.531 28.988
H 16.355 15.286 28.681
N 19.568 16.808 22.087
C 18.821 15.896 22.809
C 18.755 14.737 21.88 
C 19.257 15.039 20.624
C 19.828 16.349 20.859
C 18.147 13.406 22.245
H 17.665 13.367 23.234
H 17.377 13.046 21.472
H 19.015 12.773 22.343
C 19.216 14.092 19.437
H 20.246 13.918 19.106
H 18.887 13.081 19.837
C 18.317 14.692 18.268
H 18.373 13.978 17.417
H 17.248 14.778 18.695
H 18.719 15.65  18.013
N 21.06  19.084 21.165
C 21.092 18.402 19.972
C 21.733 19.195 18.933
C 22.048 20.37  19.594
C 21.613 20.291 20.923
C 22.063 18.771 17.549
H 21.451 17.928 17.25 
H 21.997 19.64  16.874
H 23.123 18.475 17.5  
C 22.609 21.762 19.355
O 23.039 22.274 18.318
C 22.625 22.476 20.824
H 22.205 23.424 20.643
C 23.999 22.614 21.272
O 24.483 21.924 22.166
O 24.703 23.517 20.577
C 26.164 23.62  20.87 
H 26.359 23.746 21.96 
H 26.528 22.631 20.641
H 26.705 24.357 20.267
C 22.385 28.486 22.789
H 22.899 28.019 21.948
H 23.21  28.718 23.483
C 21.537 29.731 22.418
H 20.796 29.675 21.664
C 21.535 30.995 22.926
C 22.428 31.395 24.12 
H 21.961 31.923 24.873
H 22.835 30.496 24.492
H 23.273 32.023 23.734
C 20.597 32.051 22.359
H 20.424 32.727 23.245
H 19.584 31.665 22.109
C 21.219 32.904 21.194
H 21.099 32.315 20.319
H 22.287 33.041 21.391
C 20.338 34.171 20.908
H 19.418 33.897 21.434
H 20.177 34.125 19.789
C 21.003 35.464 21.421
H 22.049 35.384 21.693
C 20.429 35.78  22.812
H 19.345 35.911 22.694
H 20.6   34.89  23.457
H 20.832 36.649 23.299
C 20.666 36.666 20.488
H 21.025 37.471 21.162
H 19.588 36.531 20.439
C 21.287 36.613 19.108
H 20.495 36.085 18.638
H 22.192 35.935 19.081
C 21.556 37.991 18.398
H 22.463 37.884 17.823
H 21.703 38.808 19.125
C 20.423 38.4   17.417
H 20.275 37.525 16.748
C 20.846 39.701 16.733
H 19.96  40.186 16.242
H 21.092 40.42  17.494
H 21.688 39.631 16.027
C 18.987 38.556 18.09 
H 19.027 39.466 18.716
H 18.741 37.697 18.728
C 17.885 38.744 17.009
H 17.145 37.953 17.19 
H 18.227 38.558 15.987
C 17.193 40.129 17.055
H 17.321 40.508 16.006
H 17.731 40.858 17.692
C 15.69  39.999 17.495
H 15.314 39.228 16.838
C 15.156 41.421 17.132
H 15.32  41.869 16.169
H 14.067 41.408 17.295
H 15.431 42.091 17.901
C 15.553 39.769 18.929
H 15.573 38.672 19.169
H 16.242 40.448 19.496
H 14.477 39.925 19.251
