137

Mg 36.366 35.012 34.713
C 33.035 35.731 34.093
C 35.766 31.671 34.163
H 35.685 30.586 34.07 
C 39.658 34.424 35.231
H 40.694 34.314 35.426
C 36.801 38.313 35.683
H 37.067 39.288 36.061
N 34.648 33.866 34.173
C 33.371 34.38  33.987
C 32.356 33.224 33.763
H 31.569 33.179 34.518
C 33.184 31.929 33.956
H 33.164 31.401 33.041
C 34.654 32.486 34.09 
C 32.73  30.98  35.092
H 33.045 31.461 36.058
H 31.683 30.761 34.949
H 33.312 30.052 35.032
C 31.724 33.305 32.329
H 32.553 33.217 31.72 
H 31.337 34.287 32.194
C 30.61  32.276 31.879
H 31.11  31.472 31.443
H 29.91  31.911 32.676
C 29.767 32.669 30.684
O 29.865 33.712 30.128
O 28.984 31.602 30.27 
N 37.503 33.363 34.555
C 37.121 32.05  34.268
C 38.284 31.201 34.108
C 39.378 31.954 34.519
C 38.872 33.302 34.864
C 38.22  29.788 33.73 
H 38.991 29.394 33.029
H 38.238 29.068 34.592
H 37.239 29.751 33.174
C 40.828 31.615 34.625
H 41.481 32.185 35.287
C 41.519 30.605 33.957
H 41.081 29.752 33.386
H 42.558 30.464 34.305
N 37.94  36.199 35.371
C 39.241 35.787 35.39 
C 40.072 36.884 35.952
C 39.18  37.923 36.22 
C 37.907 37.522 35.722
C 41.597 36.792 36.17 
H 42.302 36.916 35.352
H 41.893 37.615 36.823
H 41.903 35.947 36.794
C 39.635 39.272 36.829
H 38.888 39.818 37.381
H 40.51  39.145 37.498
C 40.16  40.236 35.819
H 40.128 41.246 36.237
H 41.231 40.03  35.518
H 39.514 40.25  34.889
N 35.19  36.646 34.787
C 35.522 37.937 35.239
C 34.388 38.796 35.19 
C 33.37  37.967 34.787
C 33.922 36.704 34.559
C 34.243 40.217 35.655
H 33.174 40.354 35.96 
H 34.961 40.449 36.493
H 34.521 40.861 34.798
C 31.989 37.879 34.415
O 31.163 38.823 34.304
C 31.736 36.394 34.098
H 31.471 36.347 33.064
C 30.913 35.876 35.185
O 31.073 35.991 36.384
O 29.935 35.146 34.623
C 28.909 34.53  35.442
H 28.411 35.294 36.041
H 28.233 34.146 34.656
H 29.394 33.726 36.068
C 27.909 32.057 29.332
H 28.378 32.52  28.445
H 27.335 32.814 29.85 
C 27.065 30.802 29.183
H 26.974 30.352 30.159
C 26.56  30.149 28.099
C 26.627 30.663 26.688
H 25.581 30.761 26.31 
H 27.17  31.569 26.522
H 27.119 29.948 26.005
C 25.99  28.819 28.334
H 26.339 28.287 29.209
H 26.309 28.19  27.506
C 24.444 28.791 28.201
H 24.142 27.912 27.539
H 24.041 29.649 27.694
C 23.717 28.656 29.584
H 24.471 28.564 30.362
H 23.099 27.812 29.665
C 22.847 29.87  29.948
H 22.179 30.081 29.087
C 23.641 31.124 30.201
H 23.027 31.869 30.662
H 24.328 30.869 30.968
H 24.304 31.513 29.465
C 21.9   29.628 31.24 
H 21.334 28.733 31.234
H 21.123 30.415 31.079
C 22.469 29.866 32.66 
H 22.659 30.948 32.767
H 23.423 29.294 32.684
C 21.454 29.402 33.718
H 22.127 29.136 34.571
H 20.878 28.604 33.377
C 20.395 30.506 34.242
H 19.946 31.021 33.362
C 21.06  31.643 35.063
H 21.788 32.228 34.479
H 20.217 32.206 35.558
H 21.464 31.236 36.019
C 19.163 29.839 34.951
H 18.467 30.635 35.322
H 19.585 29.255 35.737
C 18.315 28.877 34.063
H 18.788 28.5   33.118
H 17.428 29.364 33.899
C 17.806 27.585 34.673
H 16.797 27.76  35.076
H 18.489 27.367 35.563
C 17.759 26.435 33.77 
H 18.651 26.287 33.184
C 16.69  26.722 32.766
H 16.784 26.076 31.935
H 15.707 26.613 33.243
H 16.776 27.696 32.367
C 17.456 25.127 34.452
H 17.321 24.459 33.564
H 18.261 24.795 35.14 
H 16.496 25.071 35.023
