137

Mg 20.84  17.32  25.001
C 23.487 16.644 23.001
C 22.94  19.381 26.976
H 23.686 19.85  27.628
C 18.33  17.876 27.137
H 17.509 18.056 27.812
C 18.983 14.829 23.406
H 18.469 13.989 22.898
N 22.914 17.975 24.924
C 23.78  17.584 23.994
C 25.213 18.133 24.275
H 25.831 17.284 24.498
C 24.954 18.825 25.627
H 25.199 19.894 25.471
C 23.545 18.748 25.837
C 25.812 18.251 26.822
H 25.537 17.183 27.017
H 26.859 18.368 26.593
H 25.606 18.839 27.723
C 25.754 19.06  23.142
H 25.05  19.886 23.035
H 25.726 18.42  22.256
C 27.156 19.657 23.321
H 27.834 19.07  23.942
H 27.614 19.741 22.351
C 27.366 21.095 23.987
O 28.404 21.409 24.505
O 26.305 21.981 23.873
N 20.647 18.459 26.632
C 21.623 19.172 27.373
C 20.979 19.691 28.522
C 19.685 19.37  28.528
C 19.499 18.597 27.341
C 21.706 20.509 29.553
H 22.242 21.315 29.085
H 20.998 20.888 30.286
H 22.431 19.749 29.833
C 18.556 19.706 29.431
H 17.626 20.143 29.122
C 18.784 19.433 30.703
H 19.716 18.939 31.028
H 18.102 19.707 31.553
N 18.961 16.456 25.324
C 18.078 16.894 26.224
C 16.849 15.983 26.235
C 17.026 15.163 25.082
C 18.347 15.424 24.49 
C 15.593 16.139 27.059
H 15.493 17.159 27.429
H 14.637 15.851 26.605
H 15.639 15.415 27.863
C 15.884 14.262 24.49 
H 16.163 13.151 24.508
H 14.883 14.395 24.967
C 15.528 14.648 23.084
H 15.752 15.71  22.93 
H 16.129 14.077 22.373
H 14.542 14.468 22.884
N 21.09  16.041 23.595
C 20.297 15.091 23.023
C 21.028 14.303 22.062
C 22.232 14.918 21.999
C 22.275 15.937 22.948
C 20.545 13.184 21.236
H 19.513 13.344 20.832
H 21.302 12.925 20.503
H 20.5   12.342 21.908
C 23.469 14.858 21.318
O 23.841 14.041 20.45 
C 24.317 16.065 21.912
H 24.301 16.905 21.191
C 25.712 15.557 22.306
O 25.979 14.787 23.199
O 26.651 16.04  21.39 
C 28.099 15.797 21.599
H 28.268 14.831 22.044
H 28.528 15.829 20.542
H 28.525 16.561 22.246
C 26.578 23.302 24.528
H 27.036 24.005 23.782
H 27.067 23.244 25.509
C 25.165 23.851 24.769
H 24.693 24.4   23.895
C 24.569 23.855 26.006
C 25.116 23.271 27.259
H 24.439 22.43  27.568
H 26.085 22.786 27.125
H 25.274 24.004 28.027
C 23.146 24.481 26.118
H 22.72  23.765 26.729
H 22.631 24.414 25.15 
C 23.067 25.919 26.736
H 23.956 26.543 26.657
H 22.867 25.773 27.872
C 21.753 26.583 26.278
H 21.076 26.5   27.076
H 21.309 26.051 25.393
C 21.975 28.08  25.88 
H 22.81  28.218 25.243
C 22.246 28.93  27.216
H 22.328 29.994 26.903
H 21.404 28.785 27.788
H 23.1   28.623 27.747
C 20.758 28.641 25.19 
H 20.863 29.726 25.275
H 19.796 28.376 25.726
C 20.488 28.288 23.707
H 19.55  27.744 23.663
H 21.225 27.525 23.57 
C 20.456 29.338 22.616
H 21.303 29.181 21.898
H 20.586 30.307 23.037
C 19.123 29.531 21.839
H 18.719 28.588 21.444
C 19.38  30.407 20.575
H 18.453 30.4   19.998
H 19.821 31.391 20.807
H 20.165 29.93  20.022
C 17.997 30.215 22.778
H 18.482 31.037 23.204
H 17.901 29.406 23.512
C 16.509 30.556 22.315
H 16.181 29.941 21.572
H 16.294 31.609 21.934
C 15.612 30.533 23.558
H 16.225 30.935 24.31 
H 15.346 29.438 23.821
C 14.399 31.529 23.556
H 14.707 32.542 23.125
C 13.853 31.816 25.021
H 14.704 32.031 25.644
H 13.181 32.635 25.049
H 13.333 30.991 25.515
C 13.384 30.927 22.488
H 13.746 30.742 21.473
H 12.964 29.965 22.855
H 12.537 31.618 22.487
