137

Mg 26.343 31.159 34.111
C 25.698 30.105 37.312
C 22.911 31.291 33.695
H 21.799 31.371 33.479
C 26.847 32.375 31.08 
H 26.918 32.66  30.061
C 29.697 31.251 34.784
H 30.792 31.098 34.851
N 24.498 30.787 35.434
C 24.483 30.361 36.693
C 23.096 30.389 37.338
H 22.825 29.424 37.811
C 22.167 30.626 36.088
H 21.539 31.499 36.274
C 23.229 30.942 34.986
C 21.266 29.426 35.859
H 21.717 28.5   35.55 
H 20.666 29.259 36.766
H 20.532 29.796 35.131
C 23.143 31.559 38.446
H 23.39  32.491 37.877
H 23.969 31.396 39.085
C 21.825 31.749 39.279
H 21.133 31.023 38.936
H 22.116 31.351 40.301
C 21.189 33.083 39.293
O 21.873 34.087 39.545
O 19.873 33.111 39.06 
N 25.049 31.787 32.599
C 23.687 31.527 32.548
C 23.195 32.022 31.205
C 24.385 32.352 30.445
C 25.543 32.195 31.406
C 21.73  32.104 30.774
H 21.156 31.437 31.404
H 21.455 33.149 30.757
H 21.481 31.714 29.783
C 24.402 32.712 29.019
H 25.238 32.385 28.444
C 23.427 33.48  28.385
H 22.624 33.879 29.052
H 23.493 33.693 27.326
N 28.009 31.63  33.056
C 27.999 32.124 31.801
C 29.343 32.408 31.347
C 30.147 32.123 32.417
C 29.298 31.652 33.479
C 29.711 32.824 29.985
H 29.122 32.258 29.221
H 29.567 33.883 29.744
H 30.765 32.678 29.818
C 31.626 32.393 32.537
H 32.093 31.46  32.926
H 32.097 32.662 31.623
C 31.859 33.573 33.49 
H 32.889 33.448 33.901
H 31.887 34.502 32.909
H 31.13  33.466 34.24 
N 27.536 30.713 35.627
C 28.908 30.787 35.759
C 29.258 30.087 36.945
C 28.085 29.836 37.625
C 27.005 30.285 36.803
C 30.713 29.917 37.488
H 31.412 30.317 36.766
H 30.912 30.312 38.506
H 30.976 28.89  37.537
C 27.468 29.374 38.879
O 27.983 28.884 39.841
C 25.977 29.73  38.738
H 25.862 30.488 39.433
C 25.251 28.516 39.371
O 24.989 27.503 38.744
O 24.711 28.785 40.634
C 23.686 27.793 41.078
H 23.421 28.036 42.072
H 22.838 27.929 40.399
H 23.967 26.769 41.038
C 19.199 34.4   39.153
H 19.673 35.126 38.528
H 19.331 34.659 40.239
C 17.665 34.321 38.799
H 17.131 35.049 39.359
C 16.989 33.415 37.953
C 17.574 32.237 37.162
H 17.624 31.317 37.741
H 16.993 32.169 36.193
H 18.558 32.419 36.792
C 15.513 33.401 37.946
H 15.174 34.017 38.749
H 15.206 32.36  38.18 
C 14.761 33.705 36.641
H 13.762 34.146 36.842
H 14.568 32.715 36.141
C 15.472 34.606 35.621
H 16.394 35.034 35.978
H 14.858 35.458 35.413
C 15.838 34.023 34.222
H 16.639 33.314 34.319
C 16.651 35.041 33.326
H 17.124 34.546 32.478
H 15.95  35.856 32.989
H 17.473 35.455 33.961
C 14.684 33.368 33.448
H 14.534 32.407 33.973
H 15.034 33.089 32.485
C 13.421 34.251 33.266
H 13.399 34.299 32.179
H 13.631 35.286 33.58 
C 12.121 33.637 33.82 
H 11.527 34.423 34.31 
H 12.349 32.974 34.669
C 11.236 32.684 32.912
H 10.725 33.264 32.149
C 10.158 32.227 33.947
H  9.372 31.668 33.44 
H 10.677 31.513 34.627
H  9.689 33.125 34.429
C 12.005 31.429 32.274
H 12.386 30.97  33.142
H 12.893 31.701 31.687
C 11.106 30.538 31.414
H 10.049 30.744 31.356
H 11.096 29.547 31.911
C 11.669 30.209 30.011
H 11.903 29.146 29.981
H 12.601 30.767 29.646
C 10.472 30.439 28.954
H  9.424 30.204 29.264
C 10.877 29.802 27.66 
H 10.156 30.103 26.912
H 11.896 30.002 27.427
H 10.703 28.731 27.861
C 10.391 31.973 28.599
H  9.699 32.134 27.872
H 10.213 32.668 29.457
H 11.326 32.282 28.087
