137

Mg 29.572 28.767 42.562
C 26.18  29.402 43.153
C 28.675 26.733 40.02 
H 28.502 25.951 39.208
C 32.746 28.347 42.081
H 33.752 28.227 41.885
C 30.231 30.581 45.456
H 30.407 31.152 46.372
N 27.671 28.333 41.59 
C 26.403 28.731 41.978
C 25.292 28.231 41.022
H 24.512 27.679 41.549
C 26.119 27.224 40.128
H 26.169 27.511 39.126
C 27.579 27.445 40.523
C 25.583 25.694 40.063
H 25.959 25.108 39.222
H 25.681 25.181 41.032
H 24.551 25.749 39.626
C 24.776 29.429 40.194
H 25.687 30.037 39.988
H 24.186 30.015 40.892
C 23.872 29.046 39.059
H 23.728 27.967 39.225
H 22.91  29.472 39.169
C 24.364 29.25  37.604
O 25.04  30.118 37.115
O 23.841 28.212 36.903
N 30.595 27.78  41.203
C 30.105 26.968 40.204
C 31.208 26.402 39.453
C 32.39  26.816 40.162
C 31.938 27.686 41.229
C 31.031 25.44  38.347
H 30.472 24.571 38.589
H 30.522 25.882 37.476
H 31.995 25.194 37.989
C 33.778 26.456 40.018
H 34.446 26.432 40.921
C 34.356 26.007 38.852
H 33.813 25.907 37.944
H 35.438 25.771 38.756
N 31.241 29.433 43.538
C 32.461 29.203 43.113
C 33.413 29.954 43.996
C 32.631 30.685 44.907
C 31.299 30.199 44.652
C 34.925 29.897 43.789
H 35.198 30.869 43.385
H 35.454 29.751 44.734
H 35.211 29.1   43.137
C 33.098 31.615 46.035
H 32.793 31.221 47.067
H 34.158 31.604 46.098
C 32.588 33.076 45.859
H 32.84  33.64  46.758
H 33.052 33.626 45.014
H 31.528 33.031 45.73 
N 28.448 29.553 44.069
C 28.871 30.213 45.263
C 27.761 30.559 46.096
C 26.688 30.262 45.27 
C 27.152 29.701 44.08 
C 27.922 31.341 47.381
H 26.934 31.608 47.864
H 28.447 30.757 48.134
H 28.425 32.212 47.039
C 25.229 30.359 45.283
O 24.363 30.811 45.982
C 24.839 29.564 43.894
H 24.181 30.29  43.356
C 24.097 28.437 44.419
O 24.671 27.378 44.802
O 22.766 28.657 44.406
C 21.99  27.614 45.028
H 22.285 26.614 44.747
H 22.077 27.797 46.097
H 20.95  27.778 44.699
C 24.116 28.158 35.436
H 25.096 28.258 34.971
H 23.456 28.883 34.916
C 23.705 26.782 35.074
H 24.548 26.141 34.906
C 22.467 26.443 34.609
C 21.113 27.294 34.624
H 20.299 27.009 35.307
H 21.363 28.353 34.792
H 20.685 27.272 33.629
C 22.33  25.082 33.998
H 23.184 24.841 33.337
H 21.595 25.177 33.251
C 22.022 23.862 34.893
H 21.441 24.232 35.644
H 23.004 23.409 35.198
C 21.193 22.787 34.098
H 21.702 21.844 34.264
H 21.212 23.032 33.025
C 19.692 22.696 34.617
H 19.771 22.514 35.685
C 19.082 21.46  33.884
H 18.058 21.211 34.206
H 18.975 21.602 32.834
H 19.697 20.583 34.191
C 18.805 23.921 34.262
H 19.361 24.766 34.417
H 17.988 23.942 34.99 
C 18.251 24.069 32.843
H 18.938 23.768 32.094
H 18.3   25.194 32.73 
C 16.77  23.62  32.617
H 16.529 22.902 33.41 
H 16.788 23.237 31.561
C 15.729 24.766 32.568
H 16.047 25.51  31.883
C 15.476 25.344 33.996
H 16.376 25.9   34.2  
H 14.64  25.949 34.185
H 15.363 24.596 34.79 
C 14.34  24.166 32.084
H 13.953 23.483 32.804
H 14.439 23.626 31.093
C 13.286 25.197 31.649
H 13.559 25.518 30.652
H 13.34  26.052 32.327
C 11.895 24.618 31.576
H 11.465 24.806 32.565
H 11.985 23.568 31.275
C 10.873 25.28  30.597
H 10.899 26.374 30.581
C  9.375 24.878 31.039
H  9.043 25.536 31.834
H  8.74  25.007 30.214
H  9.327 23.85  31.34 
C 11.184 24.724 29.181
H 12.298 24.785 28.999
H 10.873 23.728 29.117
H 10.588 25.31  28.575
