137

Mg 34.412 36.374 34.575
C 31.418 34.936 33.759
C 35.755 33.295 33.725
H 36.113 32.307 33.46 
C 37.424 37.286 35.957
H 38.365 37.727 36.318
C 32.788 38.955 36.096
H 32.377 39.811 36.581
N 33.719 34.487 33.61 
C 32.432 34.132 33.377
C 32.266 32.825 32.598
H 31.553 32.247 33.155
C 33.657 32.226 32.915
H 34.121 32.065 31.943
C 34.454 33.374 33.44 
C 33.582 31.008 33.979
H 33.165 31.438 34.877
H 32.88  30.229 33.653
H 34.549 30.536 34.234
C 31.849 33.131 31.044
H 32.774 33.439 30.529
H 31.056 33.913 30.926
C 31.315 31.89  30.354
H 32.116 31.566 29.764
H 30.983 31.218 31.152
C 30.131 32.153 29.429
O 30.291 32.411 28.269
O 28.92  32.21  30.064
N 36.414 35.539 34.597
C 36.702 34.292 34.208
C 38.135 34.052 34.411
C 38.664 35.239 34.963
C 37.491 36.065 35.256
C 38.871 32.851 33.847
H 39.543 32.406 34.588
H 38.233 32.041 33.558
H 39.41  33.196 32.957
C 40.093 35.622 35.18 
H 40.287 36.438 35.92 
C 41.192 35.179 34.501
H 41.116 34.362 33.721
H 42.207 35.586 34.678
N 35.012 37.896 35.762
C 36.288 38.148 36.188
C 36.327 39.419 36.951
C 35.017 39.919 36.974
C 34.16  38.957 36.233
C 37.636 40.024 37.489
H 38.267 39.225 37.838
H 38.09  40.706 36.729
H 37.352 40.626 38.319
C 34.63  41.203 37.661
H 34.034 41.064 38.541
H 35.505 41.785 38.059
C 33.787 42.062 36.677
H 33.946 43.031 37.064
H 34.26  42.144 35.694
H 32.69  41.915 36.682
N 32.505 36.981 34.676
C 31.961 38.022 35.413
C 30.522 37.938 35.399
C 30.283 36.773 34.66 
C 31.502 36.229 34.308
C 29.538 38.827 35.783
H 29.819 39.881 35.67 
H 28.761 38.681 35.065
H 29.271 38.477 36.757
C 29.123 35.932 34.211
O 27.917 36.133 34.293
C 29.895 34.771 33.427
H 29.677 34.861 32.384
C 29.27  33.617 33.97 
O 29.551 33.    34.952
O 28.335 33.141 33.058
C 27.476 32.177 33.682
H 26.96  31.617 32.87 
H 27.947 31.38  34.196
H 26.576 32.61  34.145
C 27.874 32.717 29.371
H 27.651 32.238 28.403
H 28.107 33.803 29.255
C 26.673 32.701 30.264
H 26.642 33.543 30.906
C 25.717 31.692 30.413
C 25.712 30.349 29.78 
H 25.345 30.568 28.778
H 26.682 29.974 29.891
H 25.069 29.689 30.408
C 24.618 31.788 31.417
H 24.641 32.685 32.022
H 24.755 30.974 32.098
C 23.186 31.788 30.804
H 23.311 31.574 29.76 
H 22.66  32.713 30.891
C 22.194 30.631 31.261
H 21.223 31.004 31.595
H 22.627 30.162 32.132
C 21.956 29.43  30.364
H 22.918 29.309 29.814
C 20.95  29.871 29.222
H 20.726 28.974 28.666
H 19.997 30.179 29.588
H 21.463 30.604 28.631
C 21.55  28.106 31.05 
H 22.395 27.938 31.739
H 21.61  27.257 30.388
C 20.229 28.249 31.951
H 19.463 27.518 31.687
H 19.708 29.196 31.804
C 20.466 28.08  33.493
H 20.608 29.053 33.869
H 21.319 27.404 33.717
C 19.387 27.288 34.165
H 19.266 26.333 33.655
C 17.989 28.025 34.155
H 17.301 27.495 34.836
H 18.176 28.985 34.647
H 17.715 28.182 33.113
C 19.835 26.946 35.665
H 19.001 26.335 35.943
H 19.997 27.784 36.35 
C 21.103 26.043 35.91 
H 21.957 26.699 36.136
H 21.269 25.455 34.942
C 20.943 25.059 37.116
H 20.204 25.488 37.8  
H 21.887 25.033 37.626
C 20.608 23.519 36.827
H 21.277 23.098 36.071
C 19.101 23.31  36.479
H 18.953 22.289 36.09 
H 18.469 23.496 37.363
H 18.738 24.045 35.752
C 20.884 22.664 38.046
H 20.245 22.923 38.857
H 20.807 21.559 37.82 
H 21.937 22.736 38.462
