137

Mg 23.537 27.038 41.639
C 21.955 23.989 41.625
C 24.65  26.344 38.458
H 24.983 25.98  37.491
C 25.307 29.892 41.565
H 25.77  30.883 41.597
C 22.926 27.334 45.036
H 22.752 27.507 46.155
N 23.277 25.463 40.219
C 22.515 24.337 40.415
C 22.288 23.525 39.126
H 22.406 22.47  39.14 
C 23.482 24.075 38.268
H 23.191 24.347 37.263
C 23.806 25.374 38.999
C 24.724 23.159 38.137
H 24.973 22.707 39.088
H 24.539 22.367 37.38 
H 25.647 23.639 37.79 
C 20.895 23.713 38.576
H 20.84  24.731 38.159
H 20.259 23.406 39.362
C 20.503 22.688 37.46 
H 21.332 21.986 37.253
H 19.661 22.11  37.854
C 19.959 23.308 36.153
O 20.637 24.012 35.351
O 18.744 22.89  35.86 
N 24.684 28.068 40.163
C 25.025 27.598 38.945
C 25.994 28.482 38.241
C 26.191 29.497 39.211
C 25.359 29.173 40.346
C 26.734 28.118 36.944
H 27.104 27.098 37.251
H 26.033 28.225 36.092
H 27.58  28.778 36.682
C 27.119 30.656 39.069
H 27.479 31.017 39.963
C 27.44  31.368 37.948
H 27.058 30.985 36.985
H 28.235 32.139 38.047
N 23.867 28.437 43.091
C 24.605 29.549 42.805
C 24.653 30.368 43.995
C 24.021 29.647 45.016
C 23.58  28.421 44.475
C 25.252 31.7   44.05 
H 25.106 32.2   43.089
H 24.754 32.243 44.866
H 26.318 31.644 44.333
C 23.926 30.024 46.512
H 23.794 29.1   47.123
H 24.839 30.492 46.855
C 22.845 30.943 46.738
H 21.939 30.415 46.512
H 22.733 31.325 47.771
H 22.948 31.79  46.053
N 22.66  25.944 43.103
C 22.46  26.169 44.503
C 21.823 24.943 45.058
C 21.502 24.162 43.923
C 22.107 24.768 42.772
C 21.473 24.694 46.551
H 21.129 23.617 46.775
H 22.361 24.993 47.143
H 20.688 25.372 46.831
C 20.974 22.846 43.536
O 20.498 21.98  44.298
C 21.135 22.709 42.022
H 20.202 22.655 41.411
C 21.797 21.351 41.858
O 22.872 21.043 42.383
O 21.048 20.497 41.121
C 21.522 19.085 41.115
H 20.988 18.491 40.353
H 22.635 19.121 40.889
H 21.395 18.483 41.961
C 18.267 23.21  34.506
H 19.002 22.723 33.886
H 18.072 24.239 34.413
C 16.968 22.496 34.289
H 16.281 22.956 34.993
C 16.544 21.608 33.363
C 17.333 20.929 32.323
H 17.733 20.046 32.688
H 16.707 20.662 31.407
H 18.101 21.655 31.994
C 15.096 21.118 33.476
H 14.618 21.449 34.423
H 15.104 20.085 33.72 
C 14.143 21.283 32.264
H 13.883 20.254 31.884
H 14.6   21.864 31.506
C 12.748 21.816 32.768
H 12.765 22.132 33.829
H 12.016 21.053 32.714
C 12.052 22.982 31.999
H 12.76  23.863 32.06 
C 10.743 23.466 32.735
H 10.287 24.26  32.199
H 10.082 22.644 32.763
H 10.856 23.859 33.726
C 11.769 22.71  30.502
H 12.691 22.416 30.092
H 11.457 23.602 30.05 
C 10.708 21.583 30.13 
H 10.32  21.238 31.046
H 11.196 20.772 29.617
C  9.532 22.052 29.223
H  9.388 23.109 29.399
H  8.62  21.573 29.462
C  9.731 21.9   27.676
H 10.754 22.222 27.401
C  8.705 22.776 26.946
H  7.701 22.357 26.863
H  8.599 23.763 27.426
H  9.066 22.856 25.934
C  9.614 20.394 27.207
H  8.559 20.042 27.354
H 10.28  19.729 27.801
C  9.958 20.15  25.744
H 10.807 20.774 25.502
H  9.096 20.5   25.231
C 10.119 18.607 25.428
H  9.166 18.43  24.907
H 10.112 18.159 26.398
C 11.501 18.416 24.631
H 12.393 18.72  25.174
C 11.533 19.199 23.239
H 10.678 18.998 22.622
H 11.483 20.269 23.353
H 12.412 18.874 22.733
C 11.843 16.892 24.432
H 12.85  16.653 24.091
H 11.768 16.39  25.339
H 11.166 16.265 23.817
