137

Mg 29.27  30.418 34.979
C 27.639 28.134 32.882
C 31.454 31.022 32.42 
H 32.069 31.376 31.551
C 30.981 32.389 36.98 
H 31.421 33.16  37.585
C 27.192 29.296 37.515
H 26.605 29.041 38.466
N 29.375 29.791 32.816
C 28.675 28.786 32.205
C 29.11  28.586 30.713
H 29.567 27.598 30.567
C 30.336 29.52  30.659
H 30.018 30.264 29.923
C 30.39  30.173 32.056
C 31.665 28.854 30.264
H 32.05  28.132 30.955
H 31.538 28.287 29.359
H 32.417 29.614 30.212
C 27.966 28.925 29.632
H 27.816 29.987 29.758
H 27.028 28.475 29.913
C 28.417 28.73  28.218
H 28.857 29.686 27.768
H 29.215 28.013 28.186
C 27.333 28.167 27.287
O 26.894 28.779 26.329
O 26.822 26.919 27.679
N 31.017 31.576 34.785
C 31.698 31.723 33.605
C 32.71  32.809 33.829
C 32.564 33.195 35.186
C 31.517 32.366 35.69 
C 33.721 33.272 32.683
H 33.126 33.592 31.802
H 34.218 34.134 33.066
H 34.463 32.459 32.416
C 33.152 34.244 35.977
H 33.389 33.99  36.964
C 33.345 35.539 35.551
H 33.101 35.839 34.525
H 33.876 36.274 36.195
N 29.058 30.858 36.893
C 29.852 31.713 37.55 
C 29.529 31.717 38.991
C 28.435 30.889 39.117
C 28.148 30.312 37.792
C 30.211 32.498 40.061
H 30.863 33.257 39.582
H 29.511 33.115 40.69 
H 30.797 31.858 40.665
C 27.601 30.809 40.32 
H 27.58  29.767 40.775
H 27.945 31.513 40.998
C 26.234 31.406 40.234
H 26.266 32.457 39.92 
H 25.811 30.919 39.343
H 25.659 31.309 41.175
N 27.729 28.964 35.257
C 26.956 28.695 36.306
C 25.953 27.689 35.974
C 26.179 27.439 34.673
C 27.266 28.258 34.258
C 24.82  27.101 36.901
H 25.255 26.684 37.833
H 23.941 27.772 37.207
H 24.415 26.31  36.318
C 25.744 26.692 33.559
O 24.964 25.766 33.508
C 26.617 27.128 32.332
H 25.901 27.494 31.695
C 27.261 25.992 31.73 
O 28.424 25.607 31.86 
O 26.461 25.48  30.763
C 27.067 24.298 30.02 
H 27.502 23.533 30.676
H 26.472 23.847 29.185
H 27.966 24.615 29.579
C 25.775 26.49  26.749
H 26.196 26.124 25.811
H 25.07  27.345 26.643
C 25.032 25.44  27.471
H 24.611 25.925 28.338
C 24.723 24.145 27.107
C 25.409 23.403 25.98 
H 25.539 22.342 26.374
H 24.83  23.38  25.058
H 26.37  23.908 25.738
C 23.856 23.382 28.102
H 23.857 23.903 29.059
H 24.306 22.418 28.305
C 22.436 23.044 27.579
H 22.329 22.033 27.12 
H 22.259 23.696 26.756
C 21.33  23.223 28.676
H 21.739 23.333 29.689
H 20.84  22.226 28.603
C 20.404 24.446 28.394
H 20.427 24.623 27.338
C 21.04  25.735 28.959
H 22.007 26.06  28.608
H 20.376 26.54  28.609
H 20.981 25.651 30.05 
C 18.985 24.165 28.813
H 18.662 23.236 28.404
H 18.409 24.982 28.396
C 18.605 24.15  30.355
H 18.218 25.085 30.645
H 19.485 24.141 30.942
C 17.633 23.09  30.902
H 17.198 22.598 30.005
H 16.884 23.633 31.361
C 18.145 21.971 31.79 
H 19.212 22.039 31.924
C 17.93  20.563 31.068
H 18.143 19.747 31.761
H 16.889 20.449 30.718
H 18.696 20.498 30.289
C 17.471 21.948 33.13 
H 16.459 21.62  32.99 
H 17.467 22.985 33.432
C 18.18  21.161 34.249
H 18.965 20.563 33.844
H 17.447 20.447 34.755
C 18.865 22.13  35.255
H 18.995 23.139 34.897
H 19.792 21.75  35.423
C 18.444 22.112 36.734
H 18.32  21.067 37.038
C 17.22  22.919 36.945
H 16.803 22.699 37.955
H 17.35  23.953 36.961
H 16.492 22.767 36.188
C 19.504 22.647 37.727
H 19.749 23.728 37.557
H 19.226 22.482 38.802
H 20.401 22.095 37.538
