137

Mg 24.383 26.947 40.833
C 22.564 24.14  39.963
C 26.415 26.304 38.024
H 27.013 26.089 37.136
C 26.545 29.427 41.7  
H 27.285 30.167 41.951
C 22.695 27.14  43.837
H 22.226 27.151 44.746
N 24.435 25.568 39.19 
C 23.429 24.614 38.959
C 23.502 24.074 37.542
H 23.476 22.951 37.602
C 24.91  24.55  37.026
H 24.824 25.189 36.148
C 25.277 25.507 38.181
C 25.882 23.379 36.986
H 26.043 23.069 38.009
H 25.548 22.516 36.441
H 26.816 23.806 36.606
C 22.292 24.569 36.648
H 22.268 25.688 36.531
H 21.346 24.138 36.99 
C 22.389 23.903 35.222
H 23.378 23.541 34.943
H 21.818 23.026 35.217
C 22.028 24.678 34.006
O 22.808 25.106 33.171
O 20.638 24.609 33.911
N 26.099 27.84  39.938
C 26.764 27.402 38.802
C 27.897 28.253 38.535
C 27.948 29.123 39.625
C 26.839 28.818 40.509
C 28.808 28.303 37.317
H 29.364 29.195 37.194
H 29.506 27.469 37.457
H 28.112 28.223 36.463
C 29.017 30.128 39.96 
H 30.096 29.788 39.812
C 28.665 31.449 40.228
H 27.644 31.746 40.447
H 29.415 32.204 40.432
N 24.528 28.146 42.482
C 25.499 29.152 42.616
C 25.301 29.785 43.954
C 24.227 29.076 44.571
C 23.815 28.034 43.621
C 26.068 31.015 44.459
H 26.978 30.824 43.948
H 25.466 31.895 44.165
H 26.272 31.016 45.546
C 23.56  29.294 45.951
H 23.625 28.502 46.71 
H 24.099 30.156 46.428
C 22.058 29.781 45.92 
H 21.86  29.832 46.971
H 22.019 30.749 45.383
H 21.419 29.045 45.396
N 22.916 25.881 41.762
C 22.321 26.048 43.028
C 21.302 25.002 43.172
C 21.324 24.275 41.944
C 22.388 24.755 41.195
C 20.254 24.828 44.229
H 19.465 24.105 43.967
H 20.81  24.595 45.099
H 19.787 25.78  44.454
C 20.789 23.091 41.287
O 19.895 22.348 41.729
C 21.511 22.991 39.927
H 20.65  22.997 39.315
C 22.127 21.65  39.93 
O 22.974 21.194 40.679
O 21.497 20.839 39.072
C 21.79  19.411 39.212
H 20.994 18.774 38.78 
H 22.732 19.2   38.7  
H 21.993 19.132 40.231
C 20.118 25.203 32.65 
H 20.81  24.973 31.807
H 20.125 26.289 32.771
C 18.733 24.582 32.613
H 18.156 24.79  33.463
C 18.176 23.903 31.56 
C 18.862 23.63  30.23 
H 19.751 23.038 30.331
H 18.26  23.143 29.503
H 19.092 24.54  29.628
C 16.658 23.627 31.728
H 16.315 23.963 32.707
H 16.521 22.508 31.649
C 15.675 24.207 30.655
H 15.94  23.637 29.737
H 15.854 25.301 30.526
C 14.21  23.956 30.999
H 14.242 23.374 31.924
H 13.733 23.289 30.285
C 13.32  25.283 31.215
H 13.689 25.942 31.937
C 12.048 24.837 32.051
H 11.51  25.623 32.53 
H 11.424 24.3   31.301
H 12.315 24.088 32.769
C 12.944 26.069 29.919
H 13.819 26.35  29.34 
H 12.491 26.983 30.231
C 11.924 25.347 28.953
H 11.714 24.317 29.181
H 12.395 25.197 27.981
C 10.652 26.307 28.643
H 10.943 26.876 27.742
H 10.471 27.029 29.424
C  9.239 25.595 28.196
H  9.473 25.01  27.335
C  8.115 26.601 27.601
H  7.92  27.329 28.395
H  8.426 27.058 26.662
H  7.225 26.047 27.345
C  8.733 24.633 29.356
H  8.178 25.318 30.024
H  9.512 24.276 29.956
C  7.695 23.579 28.907
H  7.417 23.917 27.908
H  6.769 23.676 29.483
C  8.203 22.16  29.09 
H  7.292 21.634 29.454
H  8.929 22.192 29.883
C  8.811 21.33  27.915
H  9.681 21.836 27.486
C  7.749 21.058 26.764
H  7.292 22.015 26.576
H  8.262 20.654 25.887
H  6.945 20.363 27.138
C  9.275 19.979 28.377
H  9.455 19.241 27.63 
H 10.223 20.052 28.967
H  8.464 19.643 29.03 
