137

Mg 20.246 25.41  31.077
C 22.487 24.233 33.544
C 19.768 28.168 33.081
H 19.602 29.101 33.622
C 18.262 26.608 28.681
H 17.663 27.023 27.861
C 20.583 22.389 29.466
H 20.639 21.481 28.891
N 21.147 26.193 32.987
C 22.038 25.539 33.784
C 22.403 26.42  35.054
H 22.111 25.865 35.914
C 21.418 27.57  34.904
H 21.985 28.516 34.801
C 20.68  27.28  33.611
C 20.522 27.916 36.096
H 19.72  28.583 35.804
H 20.096 26.979 36.348
H 21.008 28.236 36.989
C 23.901 26.779 35.044
H 24.13  27.352 34.202
H 24.466 25.779 34.828
C 24.514 27.478 36.282
H 23.825 27.213 37.046
H 25.438 27.033 36.568
C 24.661 28.97  36.326
O 25.676 29.659 36.104
O 23.401 29.484 36.63 
N 19.294 27.181 30.852
C 19.156 28.158 31.817
C 18.31  29.265 31.27 
C 17.928 28.793 29.966
C 18.519 27.476 29.774
C 17.951 30.536 31.896
H 17.731 30.406 32.955
H 18.802 31.269 31.865
H 17.104 30.929 31.413
C 17.04  29.511 28.967
H 16.229 28.989 28.456
C 17.114 30.811 28.773
H 17.931 31.365 29.231
H 16.527 31.304 27.961
N 19.565 24.661 29.387
C 18.759 25.311 28.533
C 18.421 24.455 27.499
C 19.129 23.273 27.652
C 19.796 23.4   28.851
C 17.425 24.833 26.395
H 18.027 25.161 25.519
H 16.979 23.836 26.352
H 16.706 25.568 26.574
C 19.022 21.985 26.725
H 18.565 21.215 27.365
H 18.282 22.158 25.886
C 20.384 21.666 25.95 
H 20.655 22.411 25.204
H 21.172 21.631 26.662
H 20.263 20.717 25.403
N 21.3   23.724 31.354
C 21.414 22.576 30.564
C 22.315 21.637 31.156
C 22.757 22.302 32.318
C 22.137 23.528 32.366
C 22.627 20.294 30.752
H 23.693 19.891 30.98 
H 21.894 19.689 31.27 
H 22.571 20.227 29.659
C 23.649 22.126 33.374
O 24.389 21.128 33.598
C 23.464 23.346 34.355
H 24.382 23.763 34.515
C 22.881 22.945 35.688
O 21.756 22.462 35.84 
O 23.808 23.181 36.668
C 23.286 23.039 38.077
H 22.302 22.567 38.127
H 23.901 22.264 38.601
H 23.35  24.009 38.576
C 23.333 30.922 36.894
H 23.699 31.496 36.061
H 23.938 31.105 37.798
C 21.939 31.168 37.134
H 21.457 30.816 38.056
C 21.026 31.728 36.312
C 21.268 32.205 34.911
H 20.415 32.071 34.232
H 21.513 33.277 34.938
H 22.092 31.655 34.43 
C 19.585 31.744 36.719
H 19.411 31.285 37.73 
H 18.952 31.031 36.099
C 18.929 33.163 36.769
H 19.615 33.843 36.341
H 18.637 33.266 37.813
C 17.744 33.339 35.797
H 17.903 32.595 35.021
H 17.779 34.196 35.176
C 16.281 33.08  36.313
H 16.079 33.955 36.991
C 16.017 31.778 37.037
H 16.171 31.067 36.224
H 16.689 31.664 37.889
H 14.975 31.694 37.338
C 15.305 33.342 35.101
H 14.419 32.819 35.158
H 15.791 32.833 34.282
C 14.947 34.877 34.838
H 15.167 35.461 35.713
H 13.895 34.995 34.665
C 15.659 35.473 33.6  
H 14.863 35.791 32.874
H 16.251 34.725 33.127
C 16.615 36.681 33.798
H 17.32  36.408 34.596
C 15.867 37.943 34.204
H 16.605 38.64  34.609
H 15.438 38.313 33.291
H 15.078 37.74  34.996
C 17.495 36.924 32.463
H 18.275 37.69  32.699
H 16.781 37.257 31.711
C 18.293 35.692 31.798
H 18.31  34.939 32.572
H 19.314 35.936 31.612
C 17.595 35.148 30.578
H 16.657 35.612 30.283
H 17.352 34.069 30.721
C 18.556 35.219 29.254
H 19.455 34.714 29.486
C 18.888 36.607 28.72 
H 19.465 36.391 27.804
H 17.99  37.091 28.401
H 19.35  37.228 29.469
C 18.065 34.41  28.021
H 18.821 34.384 27.202
H 17.856 33.45  28.456
H 17.212 34.738 27.446
