137

Mg 20.015 25.237 31.22 
C 22.067 24.389 34.003
C 18.743 27.804 33.12 
H 18.272 28.669 33.645
C 18.159 26.022 28.601
H 17.643 26.385 27.633
C 21.18  22.398 29.645
H 21.664 21.564 29.144
N 20.457 26.07  33.229
C 21.371 25.592 34.115
C 21.42  26.361 35.38 
H 21.38  25.696 36.272
C 20.244 27.386 35.253
H 20.457 28.417 35.216
C 19.75  27.111 33.8  
C 19.178 27.218 36.386
H 18.551 28.07  36.455
H 18.622 26.276 36.209
H 19.764 27.008 37.224
C 22.777 27.204 35.532
H 22.571 28.14  34.993
H 23.551 26.753 34.897
C 23.175 27.53  37.002
H 22.791 26.613 37.564
H 24.155 27.24  37.285
C 23.105 28.85  37.627
O 23.972 29.503 38.129
O 21.803 29.257 37.5  
N 18.678 26.707 30.885
C 18.193 27.561 31.82 
C 17.032 28.292 31.202
C 16.957 27.873 29.841
C 17.983 26.877 29.694
C 16.315 29.452 31.91 
H 15.346 29.183 32.22 
H 16.795 29.911 32.79 
H 16.144 30.262 31.149
C 16.067 28.328 28.753
H 16.294 28.267 27.72 
C 14.888 28.924 29.084
H 14.479 29.128 30.108
H 14.232 29.194 28.153
N 19.767 24.332 29.376
C 18.956 24.847 28.456
C 19.076 24.055 27.204
C 19.956 23.024 27.552
C 20.367 23.264 28.862
C 18.331 24.301 25.927
H 17.39  24.687 26.253
H 18.921 25.079 25.415
H 18.186 23.412 25.377
C 20.45  21.867 26.703
H 20.328 20.83  27.133
H 20.004 21.883 25.71 
C 21.993 21.969 26.442
H 22.446 20.989 26.102
H 22.235 22.725 25.729
H 22.6   22.296 27.283
N 21.271 23.649 31.688
C 21.604 22.554 30.955
C 22.548 21.694 31.713
C 22.742 22.38  32.968
C 21.96  23.615 32.889
C 23.341 20.513 31.178
H 23.198 19.729 31.833
H 23.018 20.084 30.191
H 24.414 20.811 31.165
C 23.484 22.368 34.202
O 24.302 21.584 34.638
C 23.001 23.666 34.913
H 23.82  24.366 35.136
C 22.436 23.118 36.104
O 21.288 22.719 36.295
O 23.381 23.214 37.079
C 23.115 22.889 38.517
H 22.684 23.792 38.998
H 22.302 22.118 38.63 
H 24.012 22.655 39.028
C 21.603 30.613 38.004
H 22.075 31.349 37.307
H 22.002 30.653 39.081
C 20.072 30.877 38.004
H 19.494 30.3   38.743
C 19.264 31.5   37.139
C 19.721 32.138 35.843
H 19.503 33.188 35.807
H 20.756 31.982 35.649
H 19.151 31.731 35.019
C 17.766 31.489 37.393
H 17.402 30.66  38.037
H 17.315 31.375 36.438
C 17.464 32.908 37.975
H 18.304 33.494 38.265
H 16.838 32.564 38.873
C 16.611 33.768 36.962
H 16.851 33.484 35.894
H 16.975 34.734 37.187
C 15.083 33.842 37.219
H 14.863 34.264 38.195
C 14.502 32.375 37.105
H 14.574 31.914 36.145
H 15.001 31.621 37.739
H 13.453 32.383 37.378
C 14.395 34.811 36.19 
H 13.309 34.679 36.135
H 14.75  34.434 35.27 
C 14.696 36.365 36.259
H 15.434 36.696 37.046
H 13.811 36.826 36.728
C 14.957 36.929 34.81 
H 14.041 37.507 34.628
H 15.051 36.063 34.131
C 16.083 37.931 34.537
H 17.081 37.487 34.83 
C 15.834 39.241 35.33 
H 16.832 39.637 35.439
H 15.18  39.804 34.719
H 15.391 39.125 36.326
C 16.158 38.239 32.968
H 16.742 39.145 32.777
H 15.23  38.346 32.454
C 17.027 37.185 32.114
H 16.692 36.206 32.519
H 18.07  37.307 32.247
C 16.713 37.234 30.645
H 17.608 37.523 30.068
H 16.015 38.033 30.437
C 16.066 35.901 30.127
H 15.22  35.604 30.787
C 17.003 34.696 30.245
H 16.45  33.781 29.92 
H 17.893 34.793 29.673
H 17.323 34.633 31.285
C 15.647 36.123 28.68 
H 15.076 35.292 28.242
H 15.044 37.045 28.623
H 16.533 36.222 28.122
