137

Mg 30.423 29.655 34.38 
C 29.968 29.23  37.669
C 27.158 28.921 33.803
H 26.09  28.593 33.631
C 30.829 30.206 31.055
H 31.168 30.367 30.091
C 33.793 30.2   34.916
H 34.781 30.48  35.173
N 28.765 29.132 35.603
C 28.756 29.082 36.957
C 27.398 28.705 37.576
H 27.464 27.7   38.028
C 26.594 28.45  36.28 
H 25.75  29.099 36.267
C 27.564 28.904 35.138
C 26.013 27.03  36.167
H 25.563 26.987 35.18 
H 26.818 26.29  36.197
H 25.3   26.854 36.944
C 26.766 29.636 38.636
H 26.442 30.495 38.028
H 27.631 29.896 39.237
C 25.636 28.984 39.484
H 25.496 27.859 39.408
H 25.964 29.097 40.535
C 24.214 29.496 39.274
O 23.534 30.113 40.069
O 23.782 29.109 37.982
N 29.137 29.576 32.649
C 27.902 29.177 32.649
C 27.398 29.11  31.251
C 28.464 29.601 30.437
C 29.533 29.812 31.372
C 25.886 28.73  30.882
H 25.144 29.49  31.204
H 25.838 28.808 29.85 
H 25.491 27.748 31.202
C 28.377 29.929 28.998
H 27.379 30.171 28.598
C 29.44  29.842 28.172
H 30.429 29.462 28.488
H 29.452 30.173 27.091
N 32.057 30.044 33.186
C 32.029 30.247 31.863
C 33.341 30.583 31.434
C 34.245 30.466 32.509
C 33.38  30.245 33.617
C 33.684 30.816 29.999
H 34.516 30.196 29.752
H 32.86  30.579 29.316
H 33.99  31.818 29.861
C 35.692 30.72  32.402
H 36.341 30.184 33.056
H 35.959 30.415 31.363
C 36.054 32.181 32.636
H 37.132 32.527 32.653
H 35.584 32.715 31.858
H 35.591 32.451 33.583
N 31.685 29.65  35.939
C 33.039 29.89  36.035
C 33.366 29.908 37.488
C 32.18  29.567 38.173
C 31.237 29.503 37.211
C 34.78  30.043 38.161
H 35.144 31.056 38.237
H 34.801 29.467 39.111
H 35.487 29.651 37.437
C 31.617 29.288 39.433
O 32.188 29.266 40.501
C 30.139 29.031 39.196
H 29.704 29.8   39.768
C 29.89  27.664 39.795
O 30.31  26.673 39.265
O 29.187 27.724 40.992
C 29.13  26.373 41.57 
H 30.141 26.003 41.804
H 28.499 26.365 42.409
H 28.75  25.684 40.842
C 22.436 29.513 37.608
H 22.335 30.554 37.607
H 21.785 29.129 38.341
C 22.132 28.958 36.226
H 22.751 28.087 35.921
C 21.2   29.426 35.386
C 20.261 30.568 35.763
H 20.232 30.669 36.845
H 20.753 31.453 35.481
H 19.305 30.41  35.226
C 20.978 28.753 33.984
H 21.742 28.002 33.977
H 21.26  29.489 33.197
C 19.624 28.066 33.641
H 19.    28.043 34.547
H 19.931 27.073 33.452
C 18.95  28.652 32.393
H 19.086 28.017 31.589
H 19.423 29.583 32.084
C 17.426 28.899 32.636
H 17.253 29.375 33.62 
C 16.702 27.514 32.606
H 17.237 26.808 33.213
H 15.69  27.738 32.991
H 16.601 27.197 31.545
C 16.749 29.919 31.678
H 17.203 30.823 31.973
H 15.683 30.079 31.828
C 16.95 29.69 30.12
H 17.406 28.708 30.003
H 17.745 30.315 29.753
C 15.68  29.672 29.282
H 14.801 29.707 29.893
H 15.544 28.843 28.611
C 15.65  31.067 28.525
H 16.497 31.056 27.823
C 15.624 32.237 29.563
H 14.728 32.035 30.109
H 16.376 32.242 30.261
H 15.598 33.207 28.982
C 14.325 31.175 27.56 
H 13.503 31.504 28.138
H 14.041 30.126 27.246
C 14.536 32.057 26.32 
H 14.601 31.566 25.337
H 15.347 32.673 26.532
C 13.381 33.053 26.082
H 12.52  32.627 26.611
H 13.002 33.013 25.049
C 13.453 34.496 26.549
H 13.53  34.441 27.659
C 12.069 35.289 26.261
H 11.135 35.043 26.852
H 12.265 36.324 26.478
H 11.9   35.153 25.178
C 14.658 35.197 25.788
H 14.841 36.193 26.167
H 15.553 34.669 26.035
H 14.387 35.257 24.703
