137

Mg 27.418 32.804 41.551
C 25.538 29.968 41.24 
C 25.309 34.46  39.545
H 24.598 35.008 38.995
C 29.073 35.707 42.227
H 29.549 36.594 42.538
C 29.349 31.174 43.91 
H 29.891 30.709 44.69 
N 25.642 32.262 40.373
C 25.011 31.006 40.43 
C 23.838 30.945 39.438
H 23.988 30.128 38.705
C 23.916 32.429 38.803
H 22.969 33.005 38.978
C 25.037 33.089 39.566
C 24.095 32.49  37.284
H 24.158 33.501 36.954
H 24.936 31.924 36.866
H 23.149 32.109 36.823
C 22.507 30.733 40.159
H 22.445 31.501 40.987
H 22.526 29.768 40.743
C 21.318 30.68  39.193
H 21.696 30.939 38.216
H 20.796 29.713 39.198
C 20.146 31.584 39.496
O 19.209 31.254 40.25 
O 20.33  32.793 38.816
N 27.232 34.743 40.974
C 26.287 35.25  40.1  
C 26.467 36.656 39.952
C 27.59  37.061 40.677
C 28.031 35.807 41.334
C 25.502 37.543 39.155
H 24.464 37.594 39.573
H 25.994 38.48  39.117
H 25.472 37.21  38.153
C 28.155 38.448 40.816
H 27.42  39.25  40.639
C 29.459 38.742 41.106
H 30.235 37.975 41.175
H 29.889 39.78  41.209
N 29.007 33.306 42.88 
C 29.494 34.587 42.987
C 30.628 34.529 43.935
C 30.662 33.272 44.462
C 29.686 32.517 43.717
C 31.494 35.711 44.3  
H 32.305 35.905 43.6  
H 30.918 36.628 44.325
H 31.88  35.498 45.265
C 31.604 32.806 45.633
H 32.056 31.837 45.44 
H 32.45  33.49  45.761
C 30.8   32.597 47.001
H 31.574 32.467 47.793
H 30.442 33.617 47.152
H 30.124 31.792 46.856
N 27.5   30.987 42.37 
C 28.325 30.42  43.29 
C 27.938 29.089 43.59 
C 26.888 28.815 42.808
C 26.634 29.99  42.078
C 28.63  27.976 44.378
H 28.665 28.226 45.428
H 28.153 26.961 44.33 
H 29.595 27.906 43.974
C 25.889 27.832 42.385
O 25.678 26.695 42.757
C 24.962 28.503 41.395
H 23.962 28.413 41.83 
C 25.119 27.561 40.236
O 26.089 27.573 39.506
O 24.077 26.664 40.155
C 24.353 25.5   39.241
H 25.218 24.853 39.417
H 23.514 24.862 39.267
H 24.478 25.805 38.2  
C 19.25  33.743 38.916
H 19.38  34.225 39.871
H 18.204 33.31  38.766
C 19.466 34.688 37.763
H 19.46  34.243 36.736
C 19.547 36.002 37.862
C 19.581 36.718 39.205
H 20.532 36.638 39.798
H 19.47  37.762 39.035
H 18.751 36.266 39.772
C 19.698 36.841 36.642
H 20.081 36.363 35.816
H 20.527 37.429 36.87 
C 18.439 37.651 36.397
H 18.706 38.679 36.229
H 17.699 37.446 37.201
C 17.671 37.287 35.029
H 16.668 36.899 35.343
H 18.131 36.436 34.435
C 17.439 38.453 34.05 
H 17.301 39.429 34.524
C 16.145 38.3   33.163
H 15.34  38.62  33.795
H 16.078 38.958 32.346
H 16.02  37.258 32.737
C 18.656 38.704 33.039
H 19.587 38.954 33.568
H 18.287 39.597 32.448
C 18.982 37.505 32.066
H 19.185 38.    31.113
H 18.184 36.807 31.962
C 20.312 36.818 32.369
H 20.721 37.237 33.281
H 21.071 37.007 31.59 
C 20.226 35.301 32.562
H 19.448 35.025 33.333
C 21.537 34.677 33.027
H 21.519 33.618 33.424
H 22.433 34.846 32.42 
H 21.776 35.216 33.933
C 19.588 34.573 31.324
H 20.216 34.622 30.436
H 18.621 34.937 31.097
C 19.397 33.121 31.59 
H 18.812 32.971 32.486
H 20.392 32.804 31.78 
C 18.683 32.463 30.486
H 18.248 33.038 29.656
H 17.782 32.088 30.953
C 19.516 31.308 29.902
H 20.54  31.776 29.622
C 18.944 30.907 28.499
H 19.568 30.161 28.108
H 17.979 30.488 28.705
H 18.879 31.753 27.829
C 19.747 30.2   30.948
H 20.444 29.439 30.449
H 20.139 30.526 31.898
H 18.886 29.611 31.248
