137

Mg 30.025 28.185 32.509
C 27.441 27.018 30.507
C 32.259 27.526 30.069
H 33.109 27.315 29.353
C 32.305 29.579 34.419
H 33.09  30.132 34.916
C 27.535 28.796 34.895
H 26.824 28.875 35.702
N 29.848 27.392 30.495
C 28.713 26.951 29.875
C 28.978 26.448 28.496
H 28.57  25.438 28.453
C 30.489 26.316 28.482
H 31.082 26.77  27.703
C 30.927 27.163 29.704
C 31.036 24.842 28.309
H 30.749 24.246 29.185
H 30.532 24.457 27.459
H 32.087 24.903 28.102
C 28.422 27.3   27.319
H 29.024 28.192 27.291
H 27.406 27.559 27.686
C 28.289 26.586 25.969
H 28.63  27.312 25.28 
H 28.886 25.729 25.959
C 26.958 26.083 25.514
O 26.734 24.897 25.164
O 26.065 27.081 25.505
N 31.953 28.54  32.291
C 32.672 28.185 31.26 
C 34.066 28.589 31.466
C 34.071 29.265 32.658
C 32.719 29.143 33.155
C 35.231 28.333 30.455
H 36.114 28.874 30.842
H 35.364 27.279 30.451
H 34.956 28.589 29.448
C 35.206 29.804 33.414
H 35.485 30.807 33.255
C 36.094 29.106 34.143
H 35.998 28.026 34.244
H 37.07  29.569 34.505
N 29.95  28.975 34.452
C 31.016 29.469 35.123
C 30.617 29.841 36.491
C 29.22  29.713 36.503
C 28.842 29.201 35.219
C 31.499 30.435 37.573
H 31.086 31.333 38.053
H 31.516 29.808 38.471
H 32.548 30.464 37.176
C 28.316 29.94  37.698
H 27.582 29.199 37.7  
H 28.811 29.969 38.665
C 27.479 31.276 37.547
H 28.14  32.15  37.386
H 26.62  31.2   36.881
H 26.991 31.46  38.462
N 27.945 28.036 32.72 
C 27.037 28.265 33.707
C 25.744 27.803 33.428
C 25.837 27.291 32.149
C 27.179 27.485 31.73 
C 24.532 27.974 34.308
H 24.34  26.978 34.617
H 24.724 28.584 35.208
H 23.729 28.375 33.768
C 25.088 26.765 31.079
O 23.904 26.544 31.026
C 26.079 26.443 29.98 
H 25.72  26.752 28.994
C 26.199 25.025 30.027
O 26.679 24.248 30.881
O 25.695 24.409 28.882
C 26.077 22.923 28.667
H 25.779 22.438 29.661
H 25.377 22.773 27.853
H 27.1   22.77  28.324
C 24.785 26.7   24.939
H 24.784 25.954 24.081
H 24.466 27.687 24.533
C 23.82  26.374 26.091
H 24.24  26.16  27.039
C 22.479 26.527 26.157
C 21.565 26.821 24.92 
H 20.699 26.198 24.947
H 21.215 27.844 25.029
H 22.087 26.815 23.945
C 21.76  26.006 27.383
H 22.429 25.525 28.146
H 21.074 25.215 27.015
C 20.77  27.055 28.061
H 20.986 28.054 27.681
H 21.069 27.018 29.106
C 19.233 26.695 28.175
H 19.166 26.162 29.108
H 19.085 26.    27.374
C 18.23  27.784 27.836
H 18.535 28.099 26.842
C 18.166 28.851 28.92 
H 17.678 29.677 28.422
H 17.637 28.436 29.803
H 19.247 29.175 29.144
C 16.859 27.177 27.565
H 16.863 26.616 26.614
H 16.146 28.115 27.395
C 16.179 26.396 28.671
H 15.124 26.82  28.728
H 16.712 26.631 29.57 
C 16.185 24.902 28.303
H 16.765 24.654 27.401
H 15.151 24.649 28.017
C 16.661 23.943 29.282
H 17.338 24.525 29.894
C 17.521 22.715 28.602
H 18.089 22.195 29.36 
H 16.786 22.105 28.078
H 18.248 23.139 27.913
C 15.528 23.425 30.262
H 14.881 22.744 29.67 
H 14.976 24.339 30.621
C 15.976 22.544 31.476
H 15.222 22.773 32.157
H 16.98  22.883 31.809
C 16.056 21.041 31.148
H 16.008 20.988 30.121
H 15.255 20.498 31.705
C 17.392 20.297 31.541
H 18.186 20.858 31.027
C 17.514 18.838 31.129
H 16.763 18.254 31.579
H 17.493 18.787 30.061
H 18.453 18.298 31.311
C 17.712 20.375 33.066
H 17.943 21.386 33.312
H 16.731 20.158 33.428
H 18.487 19.681 33.338
