137

Mg 36.055 32.815 35.883
C 32.643 32.595 36.19 
C 35.958 29.969 33.93 
H 36.007 28.99  33.383
C 39.249 33.365 34.865
H 40.282 33.498 34.497
C 36.019 35.68  37.796
H 35.923 36.615 38.377
N 34.553 31.467 35.165
C 33.189 31.603 35.353
C 32.372 30.585 34.517
H 31.545 30.106 35.039
C 33.436 29.568 34.25 
H 33.455 29.195 33.227
C 34.727 30.381 34.358
C 33.404 28.349 35.301
H 32.399 27.948 35.258
H 34.096 27.599 34.983
H 33.61  28.525 36.35 
C 31.751 31.225 33.3  
H 32.607 31.35  32.552
H 31.358 32.233 33.485
C 30.673 30.431 32.503
H 31.218 29.795 31.795
H 30.174 29.733 33.197
C 29.564 31.216 31.804
O 29.65  31.591 30.657
O 28.523 31.352 32.593
N 37.43  31.809 34.687
C 37.21  30.654 33.951
C 38.42  30.191 33.336
C 39.384 31.181 33.665
C 38.681 32.206 34.422
C 38.68  28.998 32.501
H 39.701 28.673 32.477
H 38.076 28.172 32.856
H 38.392 29.269 31.533
C 40.896 31.159 33.57 
H 41.588 31.562 34.363
C 41.536 30.825 32.422
H 40.984 30.526 31.525
H 42.642 30.778 32.387
N 37.439 34.149 36.373
C 38.694 34.266 35.774
C 39.312 35.517 36.196
C 38.41  36.082 37.084
C 37.247 35.281 37.122
C 40.68  35.882 35.884
H 40.962 36.862 36.202
H 41.362 35.152 36.468
H 40.93  35.78  34.806
C 38.512 37.417 37.757
H 38.082 37.425 38.81 
H 39.535 37.679 37.866
C 37.73  38.427 36.973
H 36.627 38.189 37.071
H 38.03  39.295 37.581
H 37.976 38.676 35.956
N 34.689 33.907 36.912
C 34.8   35.044 37.697
C 33.566 35.27  38.369
C 32.642 34.39  37.77 
C 33.379 33.556 36.891
C 33.258 36.242 39.296
H 33.535 37.152 38.818
H 32.221 36.328 39.649
H 33.896 36.108 40.197
C 31.263 33.92  37.807
O 30.317 34.36  38.441
C 31.25  32.652 36.817
H 30.374 32.509 36.174
C 31.112 31.466 37.81 
O 31.857 31.234 38.719
O 30.124 30.633 37.336
C 29.909 29.44  38.171
H 29.508 29.649 39.173
H 29.142 28.847 37.594
H 30.842 28.918 38.202
C 27.352 31.955 31.956
H 26.96  31.512 31.017
H 27.659 32.976 31.732
C 26.31  32.079 33.035
H 26.342 32.716 33.945
C 25.098 31.512 33.001
C 24.47  30.704 31.848
H 23.438 30.981 31.844
H 24.771 31.03  30.908
H 24.492 29.658 32.064
C 24.105 31.917 34.093
H 24.594 32.295 34.97 
H 23.562 31.054 34.391
C 23.098 33.076 33.85 
H 23.306 33.466 32.828
H 23.418 33.96  34.466
C 21.644 32.582 34.031
H 21.383 32.876 35.029
H 21.566 31.466 33.949
C 20.679 33.28  33.12 
H 21.113 33.197 32.126
C 20.676 34.814 33.291
H 19.826 35.306 32.938
H 20.802 35.011 34.381
H 21.574 35.22  32.798
C 19.358 32.61  32.772
H 19.501 31.777 32.067
H 18.904 33.367 32.071
C 18.492 32.333 34.029
H 17.541 32.762 33.941
H 18.948 32.807 34.9  
C 18.287 30.793 34.212
H 18.927 30.248 33.539
H 17.271 30.642 33.993
C 18.366 30.285 35.68 
H 17.616 30.768 36.276
C 19.771 30.481 36.301
H 20.485 29.842 35.762
H 20.132 31.499 36.309
H 19.685 30.078 37.336
C 18.027 28.78  35.82 
H 18.387 28.475 36.787
H 18.554 28.272 35.011
C 16.565 28.504 35.724
H 16.007 29.394 35.721
H 16.232 27.865 36.531
C 16.122 27.819 34.36 
H 16.858 27.966 33.587
H 15.223 28.333 33.893
C 15.802 26.336 34.429
H 15.078 26.171 35.233
C 17.016 25.508 34.784
H 16.673 24.523 34.768
H 17.858 25.651 34.178
H 17.265 25.837 35.814
C 15.13  25.756 33.136
H 14.623 24.895 33.509
H 14.317 26.398 32.737
H 15.881 25.413 32.362
