137

Mg 30.726 29.616 36.152
C 27.931 29.439 38.227
C 28.601 29.694 33.426
H 27.82  29.521 32.644
C 33.346 30.493 34.18 
H 34.238 30.662 33.551
C 32.74  29.864 38.992
H 33.502 29.731 39.702
N 28.499 29.732 35.902
C 27.604 29.591 36.873
C 26.24  29.45  36.293
H 25.952 28.433 36.682
C 26.436 29.364 34.739
H 25.933 30.098 34.111
C 27.931 29.681 34.663
C 25.967 28.01  34.072
H 24.872 27.939 33.789
H 26.494 27.656 33.142
H 26.142 27.183 34.739
C 25.09  30.351 36.751
H 25.044 31.429 36.338
H 25.246 30.403 37.823
C 23.727 29.744 36.551
H 23.637 28.733 36.231
H 23.266 29.785 37.524
C 22.786 30.586 35.731
O 22.178 31.609 36.077
O 22.74  30.079 34.487
N 30.975 29.85  34.051
C 29.983 29.834 33.114
C 30.595 29.989 31.799
C 31.888 30.376 32.08 
C 32.14  30.376 33.468
C 29.887 29.86  30.451
H 28.941 29.47  30.662
H 29.879 30.785 29.936
H 30.393 29.044 29.904
C 32.967 30.671 31.09 
H 34.021 30.367 31.347
C 32.726 31.361 29.894
H 31.692 31.705 29.587
H 33.505 31.697 29.16 
N 32.689 30.11  36.511
C 33.583 30.435 35.56 
C 34.894 30.631 36.168
C 34.734 30.353 37.539
C 33.343 30.076 37.744
C 36.213 30.951 35.481
H 36.986 30.353 35.974
H 36.137 30.785 34.388
H 36.338 32.046 35.76 
C 35.802 30.405 38.663
H 35.597 29.621 39.362
H 36.836 30.447 38.185
C 35.631 31.699 39.52 
H 34.732 31.677 40.069
H 36.441 31.687 40.254
H 35.671 32.61  38.968
N 30.499 29.534 38.141
C 31.386 29.593 39.203
C 30.758 29.031 40.361
C 29.439 29.015 40.021
C 29.306 29.369 38.663
C 31.424 28.581 41.65 
H 31.66  27.517 41.642
H 32.375 29.144 41.773
H 30.917 28.837 42.599
C 28.168 28.737 40.573
O 27.809 28.22  41.612
C 27.134 29.201 39.443
H 26.635 30.021 39.787
C 26.31  28.022 39.408
O 26.576 26.935 39.023
O 25.027 28.281 39.873
C 24.036 27.199 39.946
H 24.278 26.227 39.656
H 23.46  27.211 40.883
H 23.207 27.383 39.279
C 21.73  30.626 33.59 
H 21.781 31.737 33.606
H 20.674 30.383 33.872
C 22.044 30.088 32.231
H 22.944 30.513 31.806
C 21.377 29.176 31.521
C 20.073 28.587 31.972
H 20.176 27.671 32.531
H 19.451 29.245 32.604
H 19.527 28.38  31.043
C 21.927 28.633 30.246
H 22.964 28.835 30.023
H 21.249 28.939 29.478
C 22.124 27.068 30.265
H 21.713 26.651 31.17 
H 23.155 26.765 30.459
C 21.625 26.363 28.875
H 22.419 26.486 28.189
H 20.776 26.874 28.438
C 21.367 24.842 28.979
H 22.232 24.319 29.215
C 21.156 24.124 27.619
H 20.998 23.054 27.705
H 20.243 24.607 27.235
H 22.038 24.262 27.016
C 20.327 24.485 30.058
H 20.773 24.678 31.068
H 20.12  23.464 29.969
C 18.955 25.246 29.932
H 19.03  25.95  29.115
H 18.779 25.885 30.853
C 17.716 24.299 29.768
H 17.838 23.319 30.241
H 17.579 24.157 28.757
C 16.394 24.947 30.196
H 16.463 25.939 29.706
C 16.136 24.838 31.77 
H 15.778 23.794 32.031
H 16.95  24.972 32.43 
H 15.382 25.538 32.081
C 15.171 24.19  29.486
H 15.244 23.111 29.679
H 15.294 24.337 28.451
C 13.716 24.478 29.918
H 13.682 25.488 30.195
H 13.626 23.709 30.737
C 12.748 24.038 28.807
H 13.146 23.473 27.98 
H 12.408 25.01  28.482
C 11.483 23.194 29.275
H 11.837 22.27  29.765
C 10.707 22.619 28.099
H 11.365 22.283 27.287
H 10.181 21.661 28.332
H 10.033 23.403 27.744
C 10.54  23.984 30.22 
H  9.697 23.386 30.547
H 11.075 24.172 31.124
H 10.258 25.004 29.854
