137

Mg 20.62  23.878 30.362
C 23.385 22.013 29.591
C 22.787 26.458 31.456
H 23.446 27.108 32.019
C 17.987 25.924 30.952
H 17.16  26.662 31.17 
C 18.533 21.687 28.708
H 17.82  21.096 28.054
N 22.817 24.11  30.617
C 23.774 23.171 30.201
C 25.199 23.721 30.382
H 25.838 23.029 30.952
C 24.939 24.951 31.337
H 25.595 25.824 31.044
C 23.441 25.253 31.053
C 25.162 24.571 32.793
H 24.674 23.593 32.985
H 26.204 24.452 32.97 
H 24.779 25.222 33.588
C 26.027 24.064 29.056
H 25.528 24.859 28.548
H 26.08  23.142 28.437
C 27.504 24.407 29.288
H 27.718 24.722 30.362
H 28.202 23.594 29.174
C 28.02  25.592 28.431
O 28.694 25.507 27.394
O 27.775 26.747 29.136
N 20.429 25.85  31.133
C 21.415 26.742 31.56 
C 20.775 27.95  32.035
C 19.382 27.708 32.071
C 19.193 26.445 31.352
C 21.663 29.157 32.379
H 22.65  28.919 32.808
H 21.696 29.697 31.442
H 21.157 29.61  33.159
C 18.311 28.506 32.605
H 17.389 27.966 32.752
C 18.423 29.795 33.121
H 19.324 30.455 32.938
H 17.587 30.386 33.505
N 18.612 23.87  29.871
C 17.641 24.755 30.222
C 16.328 24.353 29.691
C 16.451 23.086 29.189
C 17.925 22.844 29.25 
C 15.043 25.184 29.811
H 14.62  25.236 30.824
H 15.32  26.221 29.446
H 14.301 24.857 29.091
C 15.361 22.216 28.577
H 14.396 22.813 28.429
H 15.668 21.971 27.551
C 14.976 20.928 29.351
H 14.98  21.218 30.417
H 14.059 20.335 29.038
H 15.727 20.147 29.159
N 20.808 22.15  29.423
C 19.891 21.297 28.817
C 20.546 20.125 28.335
C 21.922 20.355 28.56 
C 22.052 21.57  29.252
C 19.917 18.994 27.728
H 20.636 18.638 26.977
H 19.625 18.157 28.337
H 18.989 19.242 27.19 
C 23.27  19.89  28.325
O 23.644 18.878 27.794
C 24.246 20.974 28.992
H 24.783 21.389 28.095
C 25.031 20.132 29.939
O 24.517 19.553 30.897
O 26.372 20.154 29.563
C 27.251 19.474 30.475
H 26.954 19.949 31.458
H 26.874 18.413 30.52 
H 28.337 19.633 30.237
C 28.218 27.949 28.429
H 27.841 27.901 27.462
H 29.29  27.989 28.366
C 27.535 29.069 29.124
H 27.627 29.132 30.181
C 26.627 29.99  28.748
C 26.236 30.256 27.268
H 25.27  29.786 27.148
H 25.86  31.318 27.174
H 26.919 29.842 26.487
C 26.073 30.93  29.768
H 26.536 30.754 30.747
H 25.004 30.853 29.83 
C 26.29  32.404 29.615
H 26.223 32.775 28.582
H 27.232 32.728 30.054
C 25.211 33.21  30.409
H 24.341 32.652 30.856
H 24.77  33.728 29.548
C 25.815 34.261 31.339
H 26.522 34.771 30.775
C 26.44  33.707 32.617
H 27.296 33.034 32.268
H 26.619 34.454 33.344
H 25.672 33.152 32.988
C 24.741 35.387 31.768
H 25.051 35.648 32.823
H 23.761 35.024 31.981
C 24.702 36.596 30.794
H 23.939 36.567 30.082
H 25.699 36.595 30.194
C 24.63  37.948 31.49 
H 25.598 38.388 31.488
H 24.451 37.882 32.614
C 23.643 38.891 30.823
H 22.812 38.212 30.88 
C 23.963 39.254 29.296
H 24.247 38.566 28.539
H 23.061 39.799 28.984
H 24.784 39.927 29.292
C 23.501 40.13  31.784
H 24.379 40.708 31.571
H 23.516 39.791 32.854
C 22.216 40.895 31.532
H 21.486 40.154 31.145
H 22.334 41.619 30.789
C 21.722 41.625 32.758
H 22.594 41.981 33.301
H 21.288 40.885 33.449
C 20.763 42.893 32.511
H 21.427 43.607 31.917
C 20.394 43.77  33.746
H 19.945 44.736 33.542
H 19.662 43.207 34.375
H 21.246 43.88  34.427
C 19.509 42.467 31.743
H 18.854 41.691 32.278
H 18.933 43.36  31.62 
H 19.867 42.066 30.79 
