137

Mg 36.642 32.818 34.851
C 33.797 32.009 33.05 
C 38.528 30.824 32.744
H 39.124 30.191 32.115
C 39.461 33.661 36.631
H 40.341 33.822 37.198
C 34.664 34.646 37.036
H 34.067 35.216 37.647
N 36.244 31.672 33.102
C 34.981 31.604 32.45 
C 35.061 30.806 31.162
H 34.403 29.956 31.248
C 36.522 30.254 31.206
H 37.008 30.749 30.305
C 37.166 30.956 32.441
C 36.676 28.694 31.157
H 36.    28.277 31.954
H 36.255 28.332 30.241
H 37.728 28.397 31.38 
C 34.631 31.69  29.986
H 35.331 32.497 29.773
H 33.625 32.059 30.266
C 34.34  30.848 28.689
H 35.109 31.195 27.969
H 34.364 29.785 28.873
C 32.997 31.064 28.031
O 32.802 31.734 27.056
O 31.966 30.337 28.639
N 38.705 32.387 34.666
C 39.25  31.457 33.753
C 40.65  31.247 34.143
C 40.959 32.095 35.24 
C 39.685 32.767 35.506
C 41.452 30.271 33.338
H 41.249 30.363 32.337
H 42.473 30.572 33.565
H 41.356 29.167 33.511
C 42.165 32.374 35.978
H 42.246 33.314 36.465
C 43.248 31.585 36.002
H 43.202 30.609 35.572
H 44.147 31.784 36.59 
N 36.982 34.011 36.529
C 38.264 34.312 37.097
C 38.114 35.206 38.211
C 36.764 35.461 38.323
C 36.074 34.728 37.232
C 39.299 35.582 39.127
H 39.502 36.586 38.995
H 39.091 35.492 40.163
H 40.282 35.168 38.921
C 36.151 36.247 39.461
H 35.466 35.57  39.886
H 36.899 36.416 40.32 
C 35.488 37.55  39.124
H 35.403 37.991 40.133
H 36.258 38.062 38.475
H 34.458 37.401 38.751
N 34.62  33.165 35.123
C 34.004 33.916 36.05 
C 32.526 33.901 35.745
C 32.379 33.008 34.671
C 33.687 32.679 34.282
C 31.454 34.597 36.465
H 30.832 34.977 35.651
H 30.892 33.875 37.098
H 31.89  35.364 37.086
C 31.476 32.323 33.773
O 30.263 32.263 33.74 
C 32.361 31.626 32.739
H 32.01  31.91  31.738
C 32.008 30.187 33.084
O 32.289 29.598 34.132
O 31.417 29.604 31.99 
C 31.237 28.148 32.092
H 30.732 27.77  31.183
H 32.193 27.688 32.048
H 30.733 27.803 32.993
C 30.701 30.479 28.053
H 30.756 30.223 27.009
H 30.387 31.472 28.211
C 29.709 29.58  28.783
H 29.667 29.803 29.816
C 28.733 28.772 28.238
C 28.477 28.732 26.718
H 28.79  27.689 26.374
H 27.475 28.855 26.467
H 28.928 29.564 26.133
C 27.848 27.904 29.168
H 27.927 28.393 30.135
H 28.311 26.916 29.089
C 26.306 27.649 28.842
H 26.18  26.755 28.276
H 25.906 28.518 28.319
C 25.503 27.497 30.137
H 24.691 28.258 30.244
H 26.095 27.525 31.023
C 24.734 26.133 30.331
H 25.547 25.416 30.472
C 23.861 25.801 29.063
H 23.413 24.786 29.198
H 23.088 26.587 28.957
H 24.311 25.824 28.109
C 23.824 26.113 31.576
H 24.457 26.412 32.479
H 23.596 25.106 31.853
C 22.462 26.792 31.822
H 21.761 26.149 32.326
H 22.106 27.153 30.919
C 22.52  28.048 32.711
H 21.81  28.723 32.187
H 23.513 28.477 32.768
C 21.864 28.04  34.161
H 20.841 27.615 34.035
C 21.739 29.513 34.588
H 21.505 29.6   35.631
H 22.674 30.092 34.397
H 20.923 30.004 34.079
C 22.821 27.294 35.093
H 23.835 27.748 35.19 
H 23.013 26.241 34.764
C 22.122 26.972 36.446
H 21.693 25.973 36.401
H 21.281 27.597 36.727
C 23.119 27.149 37.616
H 22.885 28.04  38.168
H 24.123 27.377 37.215
C 23.278 25.955 38.533
H 23.595 25.06  38.014
C 21.922 25.756 39.243
H 21.985 25.087 40.104
H 21.677 26.751 39.7  
H 21.229 25.457 38.449
C 24.431 26.189 39.505
H 25.372 26.205 38.922
H 24.427 27.101 39.99 
H 24.458 25.328 40.185
