137

Mg 29.937 28.936 33.388
C 27.712 27.776 30.907
C 32.539 28.268 31.248
H 33.443 28.052 30.593
C 32.034 30.113 35.741
H 32.61  30.329 36.614
C 27.206 29.668 35.292
H 26.365 29.931 35.894
N 30.138 28.229 31.336
C 29.103 27.809 30.521
C 29.585 27.424 29.066
H 29.19  26.469 28.679
C 31.155 27.367 29.263
H 31.728 27.941 28.614
C 31.272 27.996 30.699
C 31.736 25.955 29.161
H 31.669 25.343 30.038
H 31.352 25.504 28.172
H 32.787 25.983 28.973
C 29.071 28.507 28.031
H 29.53  29.426 28.176
H 28.039 28.744 28.245
C 29.191 28.056 26.586
H 29.976 28.715 26.196
H 29.54  27.038 26.594
C 27.994 28.13  25.721
O 28.029 28.656 24.638
O 26.793 27.772 26.372
N 31.937 29.202 33.445
C 32.851 28.865 32.492
C 34.186 29.006 33.07 
C 33.981 29.458 34.373
C 32.635 29.647 34.579
C 35.483 28.643 32.26 
H 36.24  29.333 32.584
H 35.819 27.644 32.433
H 35.378 28.917 31.199
C 34.999 29.828 35.405
H 34.86  30.791 35.971
C 36.207 29.28  35.497
H 36.578 28.461 34.781
H 36.954 29.62  36.212
N 29.691 29.904 35.153
C 30.696 30.285 35.997
C 30.142 30.736 37.23 
C 28.765 30.583 37.101
C 28.498 29.998 35.826
C 30.968 31.137 38.467
H 30.98  32.196 38.377
H 30.471 30.886 39.437
H 31.825 30.632 38.56 
C 27.774 30.789 38.212
H 27.097 29.924 38.235
H 28.245 30.754 39.2  
C 26.913 32.015 38.001
H 26.605 31.779 36.967
H 25.992 31.94  38.611
H 27.546 32.917 38.147
N 27.884 28.83  33.188
C 26.914 29.068 34.057
C 25.617 28.583 33.613
C 25.932 28.141 32.37 
C 27.307 28.303 32.2  
C 24.333 28.478 34.391
H 23.745 29.377 34.273
H 23.7   27.611 34.225
H 24.595 28.41  35.405
C 25.379 27.418 31.228
O 24.221 26.975 31.118
C 26.484 27.294 30.108
H 26.164 27.938 29.266
C 26.412 25.828 29.946
O 26.843 24.979 30.726
O 25.554 25.543 28.899
C 25.346 24.114 28.568
H 26.285 23.715 28.183
H 25.113 23.528 29.441
H 24.597 23.828 27.733
C 25.681 27.824 25.483
H 25.983 27.141 24.749
H 25.473 28.796 25.146
C 24.484 27.319 26.134
H 24.351 27.677 27.12 
C 23.566 26.424 25.602
C 23.552 25.891 24.138
H 23.139 24.911 24.315
H 22.809 26.384 23.565
H 24.446 25.802 23.622
C 22.614 25.722 26.543
H 22.93  25.899 27.517
H 22.803 24.673 26.496
C 21.153 25.996 26.264
H 20.807 25.148 25.734
H 21.142 26.863 25.577
C 20.277 26.347 27.44 
H 19.776 27.256 27.253
H 20.905 26.505 28.378
C 19.159 25.229 27.77 
H 18.72  25.108 26.714
C 18.043 25.753 28.724
H 18.592 25.928 29.653
H 17.742 26.655 28.23 
H 17.287 24.951 28.799
C 19.793 23.761 27.967
H 20.603 23.673 27.247
H 19.073 22.996 27.615
C 20.462 23.532 29.391
H 20.078 24.209 30.138
H 21.513 23.705 29.135
C 20.309 22.085 29.793
H 21.155 21.596 29.355
H 19.481 21.636 29.257
C 20.288 21.8   31.363
H 21.175 22.339 31.772
C 20.433 20.238 31.62 
H 20.689 20.045 32.721
H 19.525 19.76  31.316
H 21.291 19.895 31.01 
C 18.944 22.288 31.975
H 18.181 21.897 31.347
H 18.993 23.386 31.9  
C 18.594 21.966 33.431
H 18.247 22.839 34.012
H 19.526 21.637 33.793
C 17.577 20.844 33.513
H 18.012 20.082 34.232
H 17.271 20.377 32.581
C 16.335 21.277 34.262
H 16.564 21.653 35.243
C 15.439 20.089 34.577
H 15.054 19.625 33.672
H 16.078 19.353 35.137
H 14.578 20.286 35.231
C 15.473 22.34  33.501
H 15.081 21.88  32.661
H 14.6   22.524 34.126
H 15.966 23.277 33.13 
