137

Mg 19.392 25.949 32.092
C 20.855 23.52  34.094
C 16.867 26.095 34.392
H 16.049 26.321 35.089
C 17.857 28.107 30.029
H 17.396 28.893 29.478
C 21.834 25.425 29.694
H 22.612 25.254 28.943
N 19.004 25.038 34.02 
C 19.719 24.056 34.643
C 19.15  23.694 35.991
H 18.806 22.661 35.886
C 17.853 24.509 36.03 
H 17.837 25.273 36.845
C 17.925 25.285 34.765
C 16.555 23.751 36.32 
H 16.342 23.101 35.472
H 16.678 23.112 37.191
H 15.762 24.44  36.517
C 20.057 23.999 37.187
H 20.404 25.054 37.003
H 20.893 23.382 37.185
C 19.372 23.865 38.639
H 18.39  23.524 38.546
H 19.749 23.021 39.204
C 19.631 25.065 39.407
O 20.494 25.05  40.284
O 18.723 26.099 39.283
N 17.635 26.969 32.157
C 16.737 26.91  33.19 
C 15.717 27.845 32.991
C 16.021 28.534 31.807
C 17.226 27.876 31.257
C 14.503 28.111 33.909
H 14.922 28.221 34.909
H 14.004 29.098 33.67 
H 13.832 27.268 33.861
C 15.23  29.508 31.119
H 15.792 30.183 30.436
C 13.897 29.805 31.138
H 13.174 29.181 31.701
H 13.482 30.596 30.498
N 19.822 26.639 30.182
C 19.04  27.547 29.539
C 19.634 27.95  28.288
C 20.755 27.144 28.153
C 20.871 26.333 29.355
C 19.006 28.881 27.258
H 19.687 29.068 26.394
H 18.098 28.337 26.9  
H 18.719 29.915 27.716
C 21.76  26.989 27.055
H 21.878 25.914 26.883
H 21.414 27.372 26.124
C 23.069 27.676 27.385
H 23.631 27.139 28.15 
H 23.638 27.646 26.446
H 22.974 28.713 27.688
N 20.926 24.697 31.877
C 21.906 24.605 30.849
C 22.93  23.699 31.313
C 22.572 23.24  32.554
C 21.315 23.808 32.839
C 24.271 23.429 30.561
H 25.119 23.849 31.149
H 24.433 22.364 30.406
H 24.085 23.922 29.616
C 22.903 22.304 33.724
O 23.922 21.611 33.978
C 21.691 22.337 34.609
H 22.051 22.373 35.586
C 21.096 21.022 34.382
O 20.856 20.474 33.291
O 20.724 20.449 35.59 
C 20.086 19.083 35.49 
H 20.029 18.716 36.514
H 19.061 19.144 35.137
H 20.475 18.324 34.879
C 18.876 27.092 40.335
H 19.876 27.49  40.273
H 18.73  26.686 41.313
C 17.863 28.197 39.943
H 17.565 28.794 40.804
C 17.234 28.482 38.782
C 17.522 27.895 37.492
H 18.526 27.637 37.292
H 16.813 27.023 37.572
H 17.139 28.476 36.619
C 16.083 29.45  38.78 
H 15.882 29.853 39.76 
H 15.208 28.867 38.493
C 16.212 30.725 37.854
H 17.219 30.64  37.518
H 16.195 31.611 38.419
C 15.115 30.843 36.727
H 14.512 29.864 36.526
H 15.678 31.008 35.826
C 14.168 32.113 36.909
H 14.889 32.951 37.005
C 13.26  31.884 38.129
H 12.608 32.68  38.449
H 12.647 30.998 37.964
H 13.906 31.661 38.944
C 13.251 32.349 35.59 
H 12.575 33.29  35.767
H 12.635 31.484 35.55 
C 13.985 32.322 34.217
H 13.943 31.439 33.582
H 15.02  32.358 34.494
C 13.613 33.559 33.351
H 12.793 34.143 33.733
H 13.265 33.128 32.416
C 14.822 34.426 32.917
H 15.574 33.69  32.499
C 15.55  35.111 34.141
H 16.297 35.854 33.699
H 14.737 35.555 34.828
H 16.155 34.44  34.771
C 14.571 35.555 31.819
H 15.43  36.214 31.7  
H 13.765 36.275 32.103
C 14.151 35.167 30.432
H 13.214 35.699 30.237
H 13.848 34.154 30.278
C 15.166 35.48  29.382
H 15.27  34.601 28.709
H 16.117 35.593 29.798
C 14.801 36.766 28.527
H 13.819 36.626 28.086
C 15.753 36.927 27.345
H 15.39  37.743 26.709
H 16.804 37.186 27.716
H 15.887 35.983 26.777
C 14.686 38.056 29.407
H 14.493 38.886 28.741
H 14.06  38.077 30.264
H 15.727 38.111 29.794
