137

Mg 22.63  25.213 38.858
C 20.166 22.671 38.755
C 23.645 24.392 35.756
H 23.824 24.249 34.701
C 24.683 27.846 38.895
H 25.393 28.642 38.953
C 21.549 26.006 42.108
H 21.272 26.299 43.111
N 21.97  23.672 37.472
C 20.841 22.824 37.513
C 20.839 21.988 36.232
H 20.999 20.952 36.496
C 22.051 22.504 35.467
H 21.659 23.078 34.571
C 22.655 23.58  36.296
C 22.971 21.393 34.807
H 23.205 20.632 35.475
H 22.478 21.011 33.946
H 23.943 21.813 34.48 
C 19.447 22.172 35.563
H 19.35  23.221 35.347
H 18.671 21.858 36.279
C 19.357 21.459 34.225
H 20.083 20.642 34.105
H 18.391 20.972 34.323
C 19.429 22.207 32.917
O 20.003 23.268 32.81 
O 18.831 21.466 31.851
N 24.008 25.971 37.535
C 24.26  25.539 36.286
C 25.272 26.393 35.615
C 25.587 27.413 36.551
C 24.785 27.053 37.747
C 25.769 26.251 34.233
H 25.704 27.288 33.893
H 26.763 25.826 34.172
H 25.029 25.708 33.705
C 26.481 28.598 36.475
H 26.521 29.354 37.277
C 27.434 28.646 35.529
H 27.656 27.777 34.793
H 28.224 29.389 35.529
N 22.949 26.691 40.287
C 23.902 27.673 40.109
C 23.823 28.639 41.253
C 23.042 28.059 42.213
C 22.474 26.853 41.561
C 24.54  30.045 41.3  
H 25.09  30.025 42.211
H 25.279 30.096 40.477
H 23.792 30.836 41.271
C 22.552 28.622 43.581
H 22.657 27.87  44.391
H 23.135 29.47  43.801
C 21.118 29.249 43.621
H 21.02  30.032 42.885
H 20.45  28.463 43.159
H 20.694 29.528 44.59 
N 21.288 24.456 40.266
C 20.952 24.866 41.53 
C 19.922 24.016 42.074
C 19.574 23.208 40.954
C 20.392 23.494 39.877
C 19.194 24.06  43.409
H 19.149 22.995 43.767
H 19.779 24.603 44.107
H 18.183 24.502 43.35 
C 18.706 22.114 40.621
O 17.828 21.472 41.189
C 19.034 21.746 39.16 
H 18.142 21.786 38.527
C 19.582 20.325 39.281
O 20.752 20.027 39.541
O 18.631 19.441 38.846
C 19.08  18.047 38.712
H 19.649 17.92  37.774
H 19.64  17.744 39.54 
H 18.194 17.43  38.781
C 18.905 22.129 30.547
H 19.979 22.403 30.43 
H 18.329 23.056 30.701
C 18.245 21.285 29.449
H 18.245 20.243 29.659
C 17.618 21.693 28.325
C 17.631 23.179 27.801
H 18.35  23.301 27.009
H 16.635 23.423 27.453
H 17.917 23.91  28.564
C 17.201 20.644 27.216
H 17.745 19.711 27.451
H 17.341 21.03  26.195
C 15.762 20.358 27.316
H 15.253 21.164 26.813
H 15.485 20.503 28.38 
C 15.378 19.006 26.666
H 16.34  18.571 26.346
H 14.785 19.221 25.772
C 14.676 18.003 27.569
H 15.122 18.201 28.534
C 14.991 16.581 27.257
H 14.627 16.279 26.313
H 16.053 16.319 27.293
H 14.45  15.964 27.946
C 13.125 18.289 27.83 
H 13.072 19.28  28.218
H 12.858 17.632 28.561
C 12.189 18.313 26.629
H 12.775 18.665 25.819
H 11.453 19.053 26.817
C 11.628 16.998 26.322
H 11.798 16.267 27.057
H 12.002 16.644 25.369
C 10.101 16.86  26.193
H  9.664 17.563 25.428
C  9.426 17.308 27.492
H  8.351 17.175 27.347
H  9.67  16.562 28.245
H  9.668 18.317 27.8  
C  9.8   15.31  25.921
H  8.724 15.17  26.108
H 10.369 14.647 26.688
C  9.997 14.806 24.45 
H 10.527 15.584 23.897
H  8.95  14.665 24.043
C 10.794 13.544 24.351
H  9.994 12.738 24.362
H 11.399 13.366 25.272
C 11.901 13.436 23.243
H 11.485 13.664 22.293
C 12.281 11.981 23.127
H 12.493 11.365 24.03 
H 11.456 11.459 22.679
H 13.132 11.973 22.466
C 13.16  14.265 23.554
H 14.089 13.814 23.141
H 13.1   15.281 23.089
H 13.044 14.459 24.643
