137

Mg 36.809 32.453 36.274
C 33.727 31.541 35.119
C 38.1   31.745 33.159
H 38.491 31.513 32.212
C 39.718 33.513 37.441
H 40.679 33.94  37.659
C 35.44  32.652 39.439
H 35.085 32.767 40.461
N 36.024 31.664 34.373
C 34.691 31.415 34.108
C 34.507 30.814 32.685
H 34.17  29.802 32.801
C 35.951 30.895 32.062
H 36.105 31.557 31.261
C 36.738 31.442 33.267
C 36.45  29.529 31.477
H 37.442 29.573 30.969
H 36.607 28.741 32.251
H 35.699 29.11  30.778
C 33.472 31.561 31.821
H 33.718 32.651 31.71 
H 32.514 31.437 32.334
C 33.239 30.94  30.456
H 33.674 31.692 29.769
H 33.673 29.936 30.462
C 31.709 30.581 30.278
O 31.141 29.554 30.571
O 31.121 31.659 29.746
N 38.538 32.596 35.442
C 38.918 32.305 34.106
C 40.322 32.729 33.85 
C 40.793 33.386 35.048
C 39.72  33.168 36.05 
C 40.993 32.679 32.519
H 41.702 31.799 32.48 
H 40.199 32.477 31.762
H 41.483 33.564 32.295
C 42.007 34.207 35.233
H 41.991 35.007 35.919
C 43.138 34.02  34.571
H 43.293 33.268 33.75 
H 43.988 34.642 34.823
N 37.565 32.921 38.144
C 38.765 33.413 38.361
C 38.905 33.815 39.732
C 37.66  33.496 40.37 
C 36.807 33.057 39.294
C 40.035 34.461 40.383
H 40.467 33.686 41.089
H 40.676 34.9   39.622
H 39.691 35.336 41.014
C 37.394 33.616 41.829
H 36.545 32.938 42.061
H 38.268 33.348 42.403
C 36.888 35.045 42.186
H 36.637 35.153 43.307
H 37.672 35.721 42.07 
H 35.95  35.168 41.682
N 34.96  32.316 37.114
C 34.563 32.364 38.416
C 33.119 31.973 38.466
C 32.808 31.714 37.168
C 33.939 31.99  36.391
C 32.256 31.805 39.588
H 31.65  32.741 39.639
H 31.524 31.001 39.494
H 32.866 31.683 40.485
C 31.693 31.346 36.347
O 30.489 31.252 36.599
C 32.256 31.19  35.017
H 31.712 31.931 34.454
C 31.859 29.781 34.632
O 32.482 28.769 34.83 
O 30.665 29.783 33.953
C 30.332 28.485 33.274
H 31.105 28.167 32.548
H 30.274 27.689 33.979
H 29.407 28.657 32.79 
C 29.804 31.249 29.206
H 29.177 30.765 29.985
H 29.99  30.623 28.335
C 29.14  32.467 28.591
H 29.841 33.283 28.221
C 27.777 32.717 28.376
C 26.708 31.678 28.787
H 27.131 31.141 29.627
H 25.716 32.142 29.028
H 26.544 31.028 27.899
C 27.236 34.044 27.946
H 28.096 34.708 28.01 
H 26.562 34.305 28.792
C 26.798 34.162 26.501
H 27.022 33.253 25.925
H 27.49  34.867 26.096
C 25.327 34.542 26.448
H 25.287 35.548 26.066
H 24.912 34.629 27.455
C 24.525 33.528 25.57 
H 24.985 32.615 25.879
C 24.745 33.882 24.014
H 24.392 34.847 23.729
H 25.864 33.876 23.911
H 24.269 33.08  23.423
C 23.001 33.679 25.799
H 22.526 33.109 25.057
H 22.769 34.781 25.621
C 22.368 33.216 27.112
H 23.042 32.665 27.699
H 21.573 32.524 27.013
C 21.715 34.316 28.008
H 20.596 34.309 27.931
H 22.217 35.247 27.678
C 22.011 34.34  29.545
H 23.058 34.412 29.832
C 21.441 33.006 30.087
H 21.597 33.113 31.203
H 20.407 33.005 29.865
H 21.88  32.107 29.672
C 21.422 35.518 30.32 
H 20.319 35.528 30.293
H 21.786 36.389 29.764
C 21.909 35.783 31.806
H 22.337 36.801 31.917
H 22.676 34.962 32.049
C 20.833 35.616 32.898
H 20.6   34.555 33.119
H 19.938 36.034 32.397
C 21.199 36.341 34.284
H 21.668 37.285 33.91 
C 22.244 35.532 35.142
H 22.646 36.114 35.965
H 21.765 34.69  35.636
H 23.046 35.129 34.534
C 19.931 36.679 35.025
H 20.093 37.237 35.955
H 19.236 37.185 34.33 
H 19.377 35.668 35.184
