137

Mg 21.699 27.559 30.296
C 24.454 25.61  30.151
C 23.047 28.975 33.259
H 23.558 29.353 34.207
C 18.93  29.436 30.878
H 17.978 30.027 30.869
C 20.363 26.063 27.596
H 19.929 25.688 26.661
N 23.424 27.221 31.652
C 24.533 26.423 31.286
C 25.74  26.417 32.298
H 25.906 25.431 32.622
C 25.081 27.301 33.463
H 25.764 28.066 33.652
C 23.797 27.91  32.759
C 24.744 26.441 34.789
H 25.686 25.955 35.268
H 24.264 27.006 35.569
H 24.05  25.721 34.469
C 27.104 26.808 31.618
H 26.79  27.676 31.086
H 27.509 26.048 30.949
C 28.335 27.06  32.568
H 28.105 26.942 33.65 
H 29.149 26.396 32.212
C 28.951 28.449 32.523
O 29.854 28.821 31.776
O 28.203 29.376 33.244
N 21.08  28.866 31.827
C 21.781 29.363 32.875
C 20.961 30.223 33.728
C 19.782 30.383 33.065
C 19.851 29.483 31.89 
C 21.424 30.774 35.115
H 22.416 31.153 35.084
H 20.786 31.685 35.365
H 21.288 30.129 35.949
C 18.685 31.284 33.413
H 17.627 30.948 33.5  
C 18.892 32.599 33.539
H 19.844 33.042 33.312
H 18.03  33.293 33.705
N 19.948 27.801 29.292
C 18.923 28.656 29.72 
C 17.815 28.658 28.73 
C 18.211 27.617 27.799
C 19.518 27.049 28.216
C 16.53  29.39  28.953
H 16.646 30.486 28.917
H 15.868 29.107 28.146
H 16.124 29.043 29.909
C 17.473 27.149 26.525
H 16.879 28.004 26.247
H 18.26  26.822 25.726
C 16.53  25.941 26.81 
H 15.721 26.282 27.405
H 16.133 25.425 25.932
H 16.997 25.165 27.455
N 22.191 26.123 29.132
C 21.644 25.65  27.937
C 22.474 24.607 27.39 
C 23.601 24.651 28.173
C 23.379 25.489 29.3  
C 22.196 23.904 26.171
H 22.517 22.863 26.336
H 21.109 24.027 25.911
H 22.742 24.4   25.396
C 24.93  24.101 28.334
O 25.514 23.32  27.668
C 25.497 24.676 29.582
H 26.377 25.113 29.163
C 25.755 23.507 30.436
O 24.86  22.802 30.884
O 27.103 23.389 30.532
C 27.577 22.184 31.237
H 27.535 21.234 30.668
H 28.616 22.361 31.382
H 27.132 22.05  32.22 
C 28.652 30.777 33.102
H 28.685 30.954 32.   
H 29.618 30.959 33.534
C 27.522 31.637 33.692
H 27.602 31.956 34.716
C 26.429 32.131 33.072
C 25.814 31.578 31.837
H 26.046 32.207 31.097
H 26.266 30.596 31.717
H 24.686 31.463 31.966
C 25.508 33.117 33.812
H 25.828 33.232 34.83 
H 24.534 32.568 33.832
C 25.576 34.422 33.014
H 26.399 34.543 32.251
H 25.865 35.067 33.793
C 24.25  34.927 32.507
H 23.502 34.118 32.425
H 24.476 35.327 31.506
C 23.647 36.036 33.357
H 24.391 36.798 33.638
C 23.232 35.514 34.762
H 24.125 35.298 35.353
H 22.662 36.193 35.444
H 22.67  34.568 34.619
C 22.441 36.698 32.648
H 22.278 37.536 33.379
H 21.57  36.068 32.744
C 22.545 37.329 31.225
H 21.936 36.775 30.578
H 23.592 37.41  30.98 
C 22.06  38.812 31.076
H 21.901 39.19  32.067
H 21.106 38.719 30.622
C 22.929 39.879 30.374
H 23.015 39.468 29.351
C 24.291 40.069 31.076
H 24.333 39.448 31.959
H 25.035 39.825 30.365
H 24.494 41.109 31.472
C 22.025 41.17  30.391
H 22.124 41.601 31.45 
H 21.005 40.905 30.169
C 22.482 42.176 29.357
H 21.593 42.208 28.765
H 23.217 41.648 28.775
C 22.969 43.543 29.917
H 24.024 43.557 29.911
H 22.579 43.567 30.926
C 22.478 44.843 29.179
H 22.499 44.71  28.095
C 23.439 45.974 29.577
H 23.121 46.921 29.082
H 23.508 46.084 30.637
H 24.451 45.839 29.207
C 21.085 45.332 29.56 
H 21.051 45.472 30.617
H 20.72  46.252 29.097
H 20.473 44.433 29.206
