137

Mg 23.487 26.109 41.507
C 21.274 23.503 41.197
C 24.434 25.572 38.206
H 24.598 25.35  37.133
C 25.17  29.027 41.511
H 25.912 29.858 41.549
C 22.41  26.596 44.688
H 22.103 26.865 45.691
N 22.789 24.807 39.862
C 21.809 23.815 39.982
C 21.647 23.046 38.672
H 21.867 21.941 38.795
C 22.809 23.658 37.77 
H 22.398 24.041 36.79 
C 23.364 24.796 38.616
C 24.    22.655 37.347
H 24.532 22.398 38.297
H 23.548 21.764 36.875
H 24.744 23.058 36.641
C 20.266 23.303 38.025
H 20.215 24.37  37.714
H 19.505 23.243 38.776
C 19.869 22.34  36.919
H 20.581 21.501 36.787
H 18.9   21.912 37.229
C 19.684 22.827 35.492
O 20.383 23.638 34.929
O 18.544 22.299 34.952
N 24.711 27.098 40.1  
C 25.057 26.685 38.83 
C 25.993 27.548 38.143
C 26.118 28.603 39.049
C 25.34  28.29  40.305
C 26.635 27.336 36.756
H 27.041 26.328 36.753
H 25.803 27.447 36.104
H 27.541 27.873 36.64 
C 26.897 29.846 38.934
H 27.143 30.363 39.838
C 27.206 30.439 37.795
H 26.815 29.953 36.896
H 27.741 31.449 37.707
N 23.737 27.568 42.876
C 24.469 28.725 42.698
C 24.598 29.358 43.968
C 23.878 28.67  44.896
C 23.211 27.594 44.163
C 25.436 30.627 44.136
H 25.178 31.155 45.019
H 26.451 30.242 44.191
H 25.472 31.319 43.289
C 23.749 28.891 46.386
H 23.818 27.906 46.851
H 24.565 29.499 46.671
C 22.406 29.573 46.794
H 21.525 29.129 46.41 
H 22.32  29.556 47.861
H 22.339 30.598 46.385
N 22.302 25.157 42.745
C 21.993 25.433 44.029
C 21.11  24.412 44.613
C 20.774 23.615 43.434
C 21.56  24.1   42.365
C 20.576 24.266 46.   
H 19.962 25.166 46.272
H 19.819 23.454 45.945
H 21.327 24.096 46.82 
C 20.058 22.432 43.049
O 19.314 21.712 43.677
C 20.388 22.272 41.528
H 19.454 22.351 40.983
C 21.172 20.96  41.329
O 22.113 20.541 41.981
O 20.605 20.293 40.325
C 21.411 19.122 40.035
H 21.002 18.534 39.249
H 22.374 19.271 39.606
H 21.529 18.476 40.886
C 18.04  22.818 33.688
H 18.879 22.852 32.986
H 17.632 23.81  33.864
C 16.928 21.935 33.195
H 16.059 22.026 33.777
C 17.016 21.038 32.193
C 18.075 21.021 31.086
H 18.816 20.171 31.143
H 17.499 20.994 30.196
H 18.595 21.926 31.119
C 15.943 19.997 31.944
H 15.755 19.703 32.973
H 16.301 19.11  31.367
C 14.625 20.369 31.207
H 14.381 19.734 30.4  
H 14.803 21.451 30.924
C 13.414 20.343 32.136
H 13.712 20.291 33.148
H 12.744 19.437 32.018
C 12.405 21.581 32.009
H 12.935 22.456 32.273
C 11.236 21.478 32.952
H 10.649 22.349 32.911
H 10.69  20.652 32.671
H 11.532 21.354 33.996
C 12.01  21.719 30.515
H 12.881 21.481 29.834
H 11.753 22.742 30.393
C 10.865 20.943 29.813
H 10.741 19.989 30.303
H 11.154 20.685 28.789
C  9.482 21.669 29.774
H  9.658 22.735 29.745
H  8.911 21.341 30.598
C  8.673 21.377 28.511
H  9.364 21.443 27.687
C  7.694 22.535 28.27 
H  6.96 22.55 29.05
H  8.204 23.479 28.298
H  7.217 22.456 27.306
C  8.089 19.974 28.503
H  7.258 19.977 29.203
H  8.821 19.386 29.025
C  7.541 19.389 27.129
H  7.287 20.203 26.484
H  6.701 18.821 27.472
C  8.598 18.458 26.467
H  7.992 17.699 26.005
H  9.224 18.131 27.232
C  9.7   19.078 25.521
H 10.157 19.927 26.058
C  9.151 19.725 24.194
H  8.921 18.954 23.496
H  8.337 20.394 24.384
H  9.955 20.271 23.79 
C 10.774 18.073 25.209
H 11.37  18.481 24.45 
H 11.363 17.962 26.182
H 10.408 17.181 24.775
