137

Mg 29.739 28.685 34.922
C 27.966 26.866 32.544
C 32.131 29.395 32.474
H 32.851 29.63  31.715
C 31.577 30.346 37.179
H 32.087 31.05  37.829
C 27.617 27.564 37.33 
H 27.012 27.136 38.133
N 29.928 28.344 32.745
C 29.045 27.505 31.979
C 29.319 27.665 30.598
H 29.345 26.735 30.129
C 30.788 28.22  30.558
H 30.664 29.158 29.89 
C 31.016 28.627 32.025
C 31.904 27.248 30.146
H 32.246 26.395 30.758
H 31.812 27.    29.081
H 32.81  27.887 30.189
C 28.219 28.571 29.915
H 28.395 29.553 30.128
H 27.164 28.284 30.085
C 28.31  28.415 28.351
H 28.745 29.301 27.804
H 28.96  27.578 27.97 
C 26.96  28.046 27.674
O 26.431 28.769 26.79 
O 26.406 26.869 28.163
N 31.501 29.79  34.78 
C 32.385 29.934 33.755
C 33.38  30.891 34.074
C 33.206 31.184 35.422
C 32.036 30.425 35.863
C 34.408 31.401 33.048
H 33.82  32.115 32.457
H 35.297 31.839 33.477
H 34.657 30.595 32.487
C 34.031 32.041 36.281
H 34.402 31.679 37.234
C 34.609 33.195 35.856
H 34.373 33.579 34.857
H 35.207 33.884 36.536
N 29.544 28.969 36.937
C 30.407 29.752 37.662
C 29.827 29.87  38.957
C 28.756 28.96  39.041
C 28.541 28.518 37.703
C 30.186 30.79  40.009
H 30.373 30.214 40.899
H 31.08  31.345 39.796
H 29.374 31.495 40.118
C 27.739 28.798 40.114
H 27.586 27.703 40.305
H 28.101 29.307 41.055
C 26.406 29.41  39.751
H 26.438 30.38  39.287
H 25.935 28.684 39.104
H 25.921 29.495 40.674
N 28.042 27.508 34.962
C 27.302 27.014 36.048
C 26.181 26.245 35.541
C 26.395 26.15  34.122
C 27.567 26.904 33.85 
C 25.193 25.524 36.403
H 24.366 26.209 36.774
H 24.745 24.689 35.853
H 25.675 25.129 37.353
C 25.917 25.625 32.882
O 24.923 24.971 32.626
C 27.016 25.945 31.787
H 26.533 26.281 30.898
C 27.679 24.584 31.637
O 28.166 23.95  32.615
O 27.604 24.036 30.372
C 28.337 22.829 30.144
H 28.496 22.579 29.085
H 29.261 22.646 30.74 
H 27.674 22.036 30.458
C 25.094 26.616 27.506
H 25.352 26.305 26.511
H 24.423 27.498 27.509
C 24.592 25.492 28.363
H 24.155 25.841 29.28 
C 24.69  24.185 28.032
C 25.253 23.527 26.791
H 25.876 24.232 26.272
H 25.851 22.671 27.072
H 24.504 23.017 26.216
C 24.267 23.212 29.107
H 24.219 23.816 30.038
H 25.05  22.44  29.136
C 22.943 22.381 28.731
H 23.281 21.337 28.505
H 22.291 22.787 27.932
C 22.004 22.305 29.957
H 22.485 22.597 30.846
H 21.847 21.238 30.198
C 20.575 22.901 29.692
H 20.345 22.606 28.657
C 20.661 24.46  29.836
H 20.909 24.827 30.823
H 21.475 24.89  29.116
H 19.689 24.782 29.589
C 19.438 22.212 30.418
H 19.576 21.168 30.192
H 18.485 22.64  29.993
C 19.474 22.285 31.978
H 20.348 22.837 32.229
H 19.712 21.289 32.408
C 18.199 22.857 32.673
H 17.447 23.023 31.937
H 18.348 23.712 33.293
C 17.47  21.766 33.54 
H 17.32  20.884 32.949
C 16.043 22.183 34.131
H 15.356 21.306 34.398
H 16.154 22.79  35.024
H 15.58  22.719 33.311
C 18.329 21.315 34.759
H 18.288 22.012 35.557
H 19.379 21.315 34.436
C 17.974 19.987 35.429
H 17.442 19.379 34.697
H 17.442 20.199 36.397
C 19.222 19.058 35.784
H 20.124 19.526 35.277
H 19.129 18.09  35.266
C 19.598 18.905 37.302
H 18.681 18.547 37.875
C 19.946 20.255 37.969
H 20.334 19.935 38.914
H 20.715 20.692 37.325
H 19.145 20.987 38.062
C 20.825 17.965 37.286
H 21.727 18.389 36.8  
H 21.1   17.733 38.301
H 20.507 17.012 36.821
