137

Mg 37.28  27.641 33.706
C 33.931 27.306 34.658
C 36.631 25.788 31.02 
H 36.348 25.269 30.157
C 40.536 27.994 32.834
H 41.603 28.054 32.532
C 37.888 29.245 36.742
H 38.122 29.681 37.691
N 35.484 26.724 32.9  
C 34.156 26.757 33.42 
C 33.141 26.031 32.543
H 32.597 25.307 33.125
C 34.099 25.359 31.516
H 33.823 25.67  30.509
C 35.474 25.952 31.834
C 34.194 23.84  31.69 
H 35.032 23.416 31.127
H 34.242 23.595 32.721
H 33.204 23.614 31.18 
C 32.192 27.098 31.951
H 32.754 27.528 31.144
H 32.003 27.864 32.722
C 30.891 26.541 31.406
H 30.899 26.747 30.272
H 30.894 25.449 31.47 
C 29.738 27.139 32.159
O 29.014 26.538 32.956
O 29.554 28.418 31.897
N 38.381 26.973 32.175
C 37.901 26.277 31.067
C 39.001 26.04  30.179
C 40.148 26.599 30.716
C 39.738 27.262 31.988
C 38.943 25.192 28.969
H 37.961 25.277 28.488
H 39.793 25.504 28.359
H 39.268 24.227 29.064
C 41.545 26.619 30.177
H 41.941 27.639 30.114
C 42.192 25.609 29.691
H 41.792 24.551 29.688
H 43.21  25.757 29.305
N 38.911 28.521 34.571
C 40.159 28.583 34.021
C 41.04  29.32  34.936
C 40.295 29.745 36.002
C 38.986 29.128 35.802
C 42.457 29.579 34.57 
H 42.967 28.648 34.262
H 42.457 30.264 33.72 
H 42.934 29.886 35.523
C 40.739 30.737 37.134
H 40.677 30.289 38.124
H 41.817 30.99  36.945
C 40.004 32.139 37.223
H 40.024 32.559 38.215
H 40.358 32.99  36.601
H 38.921 32.026 37.031
N 36.147 28.182 35.33 
C 36.557 28.901 36.474
C 35.404 29.017 37.343
C 34.368 28.388 36.607
C 34.912 27.923 35.421
C 35.287 29.646 38.702
H 36.181 30.161 38.877
H 34.316 30.186 38.682
H 35.269 28.984 39.484
C 32.959 28.101 36.645
O 32.07  28.472 37.469
C 32.632 27.359 35.439
H 31.832 27.944 34.923
C 32.09  25.982 35.908
O 32.666 25.073 36.371
O 30.736 26.062 35.661
C 30.049 24.689 35.553
H 30.163 24.155 34.621
H 30.369 23.988 36.377
H 28.938 24.807 35.635
C 28.404 29.112 32.552
H 28.616 29.462 33.631
H 27.482 28.613 32.444
C 28.247 30.352 31.661
H 28.817 30.266 30.758
C 27.715 31.577 31.905
C 27.117 32.061 33.131
H 27.281 33.119 33.359
H 26.033 31.949 33.057
H 27.388 31.462 33.986
C 27.926 32.6   30.868
H 28.94  32.609 30.5  
H 27.85  33.653 31.232
C 26.879 32.506 29.744
H 26.348 33.472 29.664
H 25.981 31.909 30.038
C 27.472 32.189 28.349
H 28.383 31.67  28.41 
H 27.816 33.147 27.891
C 26.663 31.286 27.386
H 25.675 31.693 27.378
C 26.611 29.8   27.764
H 25.976 29.352 27.008
H 27.571 29.37  27.672
H 26.14  29.656 28.706
C 27.156 31.491 25.936
H 26.788 30.722 25.266
H 28.184 31.423 25.939
C 26.759 32.79  25.25 
H 27.694 33.479 25.225
H 26.12  33.38  25.896
C 26.023 32.75  23.949
H 25.06  33.108 24.193
H 26.025 31.67  23.658
C 26.63  33.513 22.788
H 27.677 33.192 22.758
C 26.535 35.006 23.101
H 26.757 35.699 22.315
H 25.591 35.323 23.594
H 27.317 35.196 23.842
C 25.962 33.237 21.375
H 26.293 34.029 20.713
H 24.913 33.369 21.522
C 26.319 31.829 20.802
H 25.922 31.028 21.404
H 27.4   31.626 20.832
C 25.818 31.772 19.381
H 26.714 31.778 18.714
H 25.08  32.591 19.129
C 24.965 30.531 19.026
H 24.105 30.466 19.72 
C 25.845 29.3   19.19 
H 26.687 29.278 18.469
H 26.227 29.112 20.141
H 25.158 28.427 19.064
C 24.34  30.586 17.635
H 23.855 29.694 17.211
H 23.589 31.349 17.761
H 25.087 30.952 16.903
