137

Mg 22.231 25.987 39.792
C 20.334 23.239 39.739
C 23.459 25.383 36.733
H 23.878 25.004 35.808
C 23.874 29.009 39.856
H 24.411 29.977 39.797
C 21.382 26.61  43.107
H 21.168 26.755 44.184
N 22.015 24.389 38.401
C 21.113 23.334 38.532
C 21.076 22.333 37.322
H 21.476 21.44  37.889
C 22.349 23.007 36.52 
H 22.016 23.381 35.46 
C 22.579 24.362 37.218
C 23.563 22.075 36.453
H 23.764 21.5   37.387
H 23.353 21.225 35.851
H 24.486 22.537 36.072
C 19.786 22.101 36.553
H 19.709 23.093 36.116
H 18.946 21.796 37.102
C 19.798 20.948 35.429
H 20.641 20.338 35.624
H 18.829 20.447 35.424
C 19.741 21.211 33.882
O 19.688 22.332 33.419
O 19.658 20.078 33.157
N 23.681 26.98  38.51 
C 24.016 26.54  37.296
C 24.912 27.537 36.714
C 24.939 28.646 37.596
C 24.086 28.226 38.69 
C 25.589 27.281 35.373
H 26.04  26.293 35.236
H 24.849 27.35  34.644
H 26.37  28.06  35.192
C 25.722 29.895 37.495
H 26.198 30.333 38.367
C 25.734 30.659 36.407
H 25.152 30.367 35.459
H 26.32  31.626 36.385
N 22.598 27.633 41.25 
C 23.344 28.729 41.062
C 23.448 29.473 42.274
C 22.839 28.75  43.267
C 22.194 27.646 42.569
C 24.421 30.598 42.353
H 24.064 31.487 41.956
H 24.737 30.886 43.337
H 25.396 30.348 41.893
C 22.827 29.08  44.702
H 23.108 28.114 45.236
H 23.547 29.816 44.962
C 21.518 29.525 45.277
H 20.691 28.91  45.025
H 21.594 29.411 46.365
H 21.409 30.57  45.033
N 21.158 25.148 41.235
C 20.866 25.459 42.581
C 19.9   24.566 43.124
C 19.631 23.73  42.043
C 20.511 24.07  40.959
C 19.137 24.75  44.314
H 18.151 24.292 44.292
H 19.707 24.261 45.115
H 19.081 25.817 44.533
C 18.677 22.727 41.544
O 17.708 22.16  42.066
C 19.186 22.317 40.141
H 18.297 22.349 39.518
C 19.514 20.824 40.266
O 20.465 20.363 40.856
O 18.608 20.066 39.616
C 18.77  18.611 39.595
H 19.709 18.454 39.13 
H 18.794 18.086 40.533
H 17.91  18.227 39.013
C 19.464 20.356 31.722
H 20.428 20.587 31.254
H 18.64  21.098 31.467
C 19.127 19.021 31.162
H 19.701 18.187 31.588
C 18.145 18.735 30.285
C 17.309 19.703 29.374
H 17.799 20.688 29.348
H 17.243 19.434 28.338
H 16.31  19.852 29.817
C 17.956 17.313 29.833
H 18.508 16.614 30.452
H 18.325 17.247 28.888
C 16.474 16.827 29.995
H 15.93  17.402 30.837
H 16.4   15.8   30.332
C 15.592 17.055 28.748
H 16.25  17.025 27.879
H 15.088 18.046 28.879
C 14.462 16.049 28.52 
H 14.997 15.105 28.512
C 13.841 16.056 27.142
H 13.51  17.06  26.865
H 14.584 15.766 26.434
H 13.017 15.317 27.135
C 13.374 16.069 29.713
H 13.986 16.057 30.61 
H 12.765 15.171 29.738
C 12.323 17.257 29.543
H 12.74  18.012 28.906
H 12.163 17.732 30.505
C 10.897 16.798 29.249
H 10.291 16.802 30.123
H 10.879 15.793 28.939
C 10.068 17.659 28.224
H 10.474 17.639 27.229
C 10.035 19.081 28.709
H 10.993 19.454 29.027
H  9.685 19.622 27.819
H  9.321 19.372 29.532
C  8.631 17.103 28.006
H  7.982 17.926 27.975
H  8.279 16.518 28.803
C  8.431 16.293 26.726
H  9.217 16.446 25.967
H  7.637 16.819 26.304
C  8.042 14.783 26.741
H  6.98  14.673 26.512
H  8.19  14.512 27.734
C  8.911 13.879 25.773
H  8.842 14.25  24.716
C  8.245 12.505 25.707
H  8.379 12.075 26.733
H  7.168 12.501 25.5  
H  8.627 11.889 24.981
C 10.433 13.86  26.201
H 11.059 13.07  25.811
H 10.823 14.799 25.785
H 10.646 13.82  27.281
