137

Mg 19.128 25.39  28.015
C 22.282 25.242 29.447
C 18.598 28.323 29.696
H 18.41  29.282 30.266
C 15.976 25.521 26.789
H 14.977 25.582 26.322
C 19.657 22.349 26.673
H 19.745 21.276 26.316
N 20.337 26.701 29.329
C 21.6   26.442 29.777
C 22.185 27.637 30.589
H 22.514 27.263 31.582
C 20.961 28.578 30.697
H 21.091 29.538 30.166
C 19.855 27.816 29.902
C 20.475 28.997 32.155
H 19.533 29.474 31.93 
H 20.405 28.085 32.78 
H 21.222 29.603 32.572
C 23.433 28.24  29.833
H 23.262 28.55  28.79 
H 24.131 27.478 30.011
C 24.177 29.468 30.522
H 23.512 29.811 31.324
H 25.013 29.179 31.087
C 24.599 30.748 29.755
O 24.673 30.933 28.577
O 24.851 31.781 30.632
N 17.599 26.682 28.202
C 17.561 27.892 28.94 
C 16.172 28.383 29.022
C 15.466 27.588 28.133
C 16.34  26.561 27.689
C 15.709 29.597 29.738
H 15.809 29.343 30.764
H 16.465 30.351 29.423
H 14.75  29.943 29.593
C 14.05  27.858 27.827
H 13.483 28.377 28.596
C 13.373 27.715 26.671
H 13.968 27.395 25.771
H 12.321 27.965 26.423
N 17.979 24.158 26.928
C 16.706 24.34  26.494
C 16.268 23.234 25.64 
C 17.325 22.312 25.638
C 18.378 22.955 26.405
C 14.96  23.171 25.067
H 14.644 22.161 24.745
H 14.14  23.522 25.672
H 15.041 23.779 24.161
C 17.41  21.071 24.807
H 17.903 20.271 25.398
H 16.397 20.757 24.551
C 18.207 21.198 23.512
H 17.791 21.874 22.759
H 19.183 21.551 23.819
H 18.374 20.231 23.043
N 20.668 24.078 27.974
C 20.746 22.855 27.411
C 22.005 22.267 27.598
C 22.652 23.104 28.498
C 21.774 24.138 28.718
C 22.517 21.042 26.886
H 23.461 20.869 27.362
H 21.929 20.17  27.018
H 22.68  21.341 25.84 
C 23.887 23.457 29.174
O 24.903 22.788 29.157
C 23.671 24.795 29.929
H 24.569 25.387 29.661
C 23.622 24.379 31.334
O 22.706 23.752 31.861
O 24.868 24.641 31.924
C 24.916 23.96  33.156
H 24.118 24.219 33.885
H 24.944 22.89  32.903
H 25.814 24.298 33.66 
C 25.428 33.073 30.132
H 26.102 32.894 29.284
H 26.057 33.496 31.003
C 24.375 34.152 29.796
H 23.673 33.814 29.004
C 24.074 35.338 30.353
C 24.961 36.075 31.328
H 25.082 37.093 30.977
H 24.477 36.168 32.323
H 26.019 35.736 31.542
C 22.962 36.197 29.767
H 22.627 35.581 28.88 
H 23.317 37.184 29.417
C 21.776 36.139 30.746
H 22.159 36.05  31.787
H 21.3   35.194 30.396
C 20.807 37.366 30.582
H 19.823 37.104 30.146
H 21.186 38.081 29.864
C 20.568 37.991 32.038
H 21.541 38.065 32.539
C 19.708 37.044 32.9  
H 18.738 36.906 32.494
H 20.151 36.115 32.886
H 19.6   37.532 33.877
C 19.878 39.41  31.92 
H 19.364 39.743 32.83 
H 19.026 39.329 31.175
C 20.858 40.479 31.429
H 21.765 40.162 30.892
H 21.193 40.997 32.313
C 20.199 41.672 30.614
H 20.273 42.581 31.325
H 19.181 41.486 30.319
C 20.988 42.158 29.29 
H 22.019 42.388 29.59 
C 20.429 43.495 28.806
H 19.449 43.313 28.351
H 20.347 44.194 29.609
H 21.21  43.978 28.17 
C 21.01  41.098 28.104
H 19.893 40.988 27.947
H 21.183 40.111 28.605
C 21.942 41.348 26.936
H 22.111 42.397 26.826
H 21.58  41.031 25.957
C 23.283 40.678 27.244
H 23.297 39.878 26.528
H 23.283 40.319 28.277
C 24.541 41.617 27.193
H 24.339 42.382 27.942
C 24.558 42.36  25.807
H 23.987 43.257 25.993
H 25.514 42.833 25.484
H 24.007 41.709 25.103
C 25.961 41.101 27.46 
H 26.182 40.318 26.734
H 26.703 41.854 27.451
H 25.976 40.475 28.361
