137

Mg 30.71  29.284 38.461
C 27.555 27.979 39.202
C 29.98  28.885 35.136
H 29.7   28.76  34.086
C 33.617 30.894 37.686
H 34.434 31.545 37.394
C 31.148 29.946 41.8  
H 31.215 30.02  42.892
N 28.941 28.528 37.273
C 27.725 28.051 37.824
C 26.74  27.698 36.707
H 26.495 26.618 37.037
C 27.711 27.7   35.5  
H 27.291 28.42  34.75 
C 28.97  28.409 35.936
C 27.979 26.303 34.845
H 26.968 25.98  34.595
H 28.634 26.429 33.989
H 28.4   25.671 35.609
C 25.495 28.665 36.692
H 25.75  29.674 36.379
H 25.072 28.853 37.607
C 24.358 28.204 35.942
H 24.402 27.148 35.713
H 23.538 28.379 36.595
C 24.025 28.956 34.678
O 23.299 29.93  34.638
O 24.575 28.355 33.536
N 31.661 29.751 36.743
C 31.215 29.541 35.477
C 32.196 29.974 34.517
C 33.282 30.535 35.223
C 32.859 30.385 36.611
C 32.075 29.813 33.056
H 32.891 29.59  32.413
H 31.264 29.172 32.836
H 31.59  30.692 32.682
C 34.614 31.14  34.769
H 35.431 31.13  35.485
C 34.891 31.543 33.545
H 34.198 31.463 32.679
H 35.877 31.802 33.296
N 32.1   30.355 39.53 
C 33.264 30.907 39.046
C 34.103 31.447 40.115
C 33.414 31.094 41.264
C 32.222 30.373 40.887
C 35.418 32.014 39.96 
H 36.167 31.263 39.723
H 35.463 32.847 39.271
H 35.721 32.454 40.887
C 33.809 31.313 42.671
H 33.41  30.574 43.33 
H 34.887 31.305 42.734
C 33.264 32.59  43.21 
H 32.149 32.639 43.262
H 33.628 32.783 44.176
H 33.603 33.324 42.588
N 29.65  28.978 40.137
C 29.927 29.282 41.455
C 28.888 28.822 42.347
C 27.943 28.389 41.482
C 28.424 28.52  40.141
C 28.837 28.774 43.852
H 27.753 28.827 43.972
H 29.298 27.864 44.079
H 29.339 29.569 44.284
C 26.649 27.872 41.397
O 25.813 27.798 42.27 
C 26.367 27.518 40.014
H 25.453 28.074 39.782
C 26.088 26.067 39.833
O 26.831 25.188 40.205
O 25.069 25.901 39.027
C 24.723 24.608 38.466
H 24.53  23.829 39.147
H 23.816 24.678 37.913
H 25.473 24.154 37.822
C 24.479 29.152 32.295
H 25.41  29.778 32.189
H 23.672 29.772 32.296
C 24.462 27.992 31.281
H 25.439 27.608 30.949
C 23.413 27.248 30.899
C 21.919 27.519 31.184
H 21.733 28.534 31.499
H 21.269 27.353 30.333
H 21.503 26.819 31.92 
C 23.594 26.097 29.927
H 24.649 26.178 29.681
H 23.03  26.236 29.017
C 23.297 24.728 30.623
H 23.38  24.947 31.696
H 24.208 24.079 30.493
C 22.01  24.051 30.065
H 22.413 23.639 29.224
H 21.165 24.717 29.812
C 21.251 23.072 30.97 
H 22.096 22.407 31.186
C 20.265 22.118 30.186
H 19.954 21.263 30.846
H 19.431 22.674 29.848
H 20.831 21.694 29.372
C 20.723 23.592 32.305
H 21.481 24.199 32.742
H 20.526 22.812 33.003
C 19.437 24.499 32.301
H 19.419 25.131 31.362
H 19.452 25.153 33.175
C 18.133 23.696 32.292
H 18.493 22.708 32.448
H 17.671 23.758 31.266
C 17.012 24.004 33.286
H 16.789 25.048 33.142
C 17.483 23.688 34.747
H 17.24  22.63  34.923
H 18.597 23.727 34.815
H 17.079 24.302 35.57 
C 15.734 23.183 32.991
H 15.933 22.109 32.994
H 15.442 23.489 31.924
C 14.59  23.373 33.99 
H 14.947 23.914 34.824
H 14.317 22.383 34.463
C 13.279 23.912 33.303
H 12.786 23.025 32.933
H 13.474 24.569 32.512
C 12.323 24.711 34.302
H 12.054 23.976 35.018
C 11.092 25.368 33.611
H 10.825 24.829 32.683
H 10.23  25.265 34.362
H 11.23  26.409 33.232
C 12.931 25.867 35.08 
H 13.571 25.476 35.875
H 13.474 26.535 34.441
H 12.143 26.51  35.548
