137

Mg 19.909 26.278 29.811
C 22.892 24.92  30.745
C 20.415 28.731 32.159
H 20.562 29.467 32.918
C 17.425 28.106 28.433
H 16.467 28.59  28.149
C 19.585 23.96  27.3  
H 19.503 23.232 26.549
N 21.35  26.631 31.417
C 22.495 25.974 31.601
C 23.249 26.577 32.712
H 23.581 25.811 33.47 
C 22.18  27.464 33.425
H 22.598 28.465 33.639
C 21.306 27.618 32.283
C 21.535 26.873 34.66 
H 22.291 26.801 35.448
H 20.694 27.43  34.92 
H 21.119 25.888 34.443
C 24.629 27.251 32.325
H 24.653 28.151 31.762
H 25.147 26.472 31.761
C 25.553 27.711 33.485
H 24.881 27.669 34.361
H 26.4   26.996 33.625
C 26.172 29.124 33.429
O 27.252 29.343 33.912
O 25.381 30.097 32.893
N 18.993 28.094 30.25 
C 19.381 28.943 31.309
C 18.453 30.134 31.264
C 17.521 29.868 30.24 
C 17.991 28.683 29.589
C 18.556 31.325 32.182
H 19.584 31.348 32.62 
H 18.355 32.226 31.623
H 17.88  31.111 33.005
C 16.398 30.741 29.846
H 16.122 30.96  28.802
C 15.642 31.354 30.778
H 15.828 31.244 31.893
H 14.796 31.982 30.501
N 18.695 26.076 28.191
C 17.755 26.927 27.771
C 16.932 26.286 26.727
C 17.59  25.079 26.346
C 18.661 24.979 27.304
C 15.69  26.983 26.139
H 15.939 27.853 25.604
H 15.4   26.222 25.387
H 14.887 27.052 26.848
C 17.173 24.053 25.289
H 16.534 24.434 24.447
H 18.121 23.784 24.806
C 16.633 22.885 26.06 
H 17.338 22.371 26.688
H 15.85  23.316 26.667
H 16.151 22.078 25.516
N 20.946 24.693 29.159
C 20.714 23.816 28.116
C 21.825 22.876 28.041
C 22.715 23.336 29.03 
C 22.094 24.397 29.685
C 22.066 21.67  27.076
H 23.064 21.19  27.082
H 21.341 20.84  27.202
H 21.958 22.096 26.046
C 23.991 23.074 29.574
O 24.843 22.215 29.319
C 24.201 24.126 30.758
H 24.996 24.854 30.61 
C 24.344 23.44  32.008
O 23.451 22.814 32.572
O 25.619 23.65  32.567
C 25.76  22.949 33.811
H 25.021 23.205 34.587
H 25.592 21.882 33.619
H 26.778 23.109 34.224
C 25.927 31.483 32.989
H 26.848 31.543 32.424
H 26.116 31.695 34.071
C 24.715 32.264 32.385
H 23.947 32.332 33.114
C 24.535 32.669 31.137
C 25.617 32.886 30.051
H 25.227 33.138 29.107
H 26.296 33.684 30.334
H 26.171 31.925 29.988
C 23.226 33.229 30.816
H 22.433 32.977 31.483
H 22.954 32.818 29.808
C 23.281 34.78  30.62 
H 23.678 35.208 29.681
H 23.855 35.263 31.424
C 21.841 35.441 30.74 
H 21.09  34.677 30.597
H 21.783 36.147 29.923
C 21.53  36.229 32.045
H 22.444 36.803 32.133
C 21.486 35.317 33.298
H 22.292 34.604 33.277
H 21.593 35.99  34.142
H 20.506 34.87  33.481
C 20.338 37.304 32.054
H 20.355 37.816 33.016
H 19.39  36.658 32.042
C 20.363 38.4   30.936
H 19.575 38.203 30.15 
H 21.309 38.227 30.458
C 20.33  39.826 31.399
H 21.294 40.079 31.753
H 19.58  40.007 32.161
C 19.953 40.788 30.276
H 20.472 40.469 29.322
C 20.72  42.198 30.581
H 20.351 42.611 31.442
H 21.754 42.16  30.733
H 20.562 42.762 29.632
C 18.474 41.022 29.964
H 18.05  41.297 30.926
H 18.064 40.093 29.657
C 18.025 42.038 28.904
H 17.352 41.429 28.292
H 18.851 42.272 28.308
C 17.384 43.381 29.51 
H 17.322 43.33  30.552
H 16.419 43.687 29.02 
C 18.227 44.7   29.47 
H 19.161 44.445 29.872
C 17.692 45.714 30.472
H 18.53  46.505 30.552
H 16.721 46.118 30.28 
H 17.832 45.307 31.498
C 18.437 45.203 28.026
H 17.463 45.364 27.545
H 18.842 46.203 28.014
H 19.138 44.534 27.488
