137

Mg 29.843 33.909 34.435
C 28.229 34.412 37.435
C 26.778 33.779 32.866
H 25.815 33.732 32.299
C 31.413 34.196 31.433
H 31.923 34.28  30.476
C 32.764 33.938 36.181
H 33.676 33.794 36.731
N 27.824 34.081 35.117
C 27.395 34.332 36.372
C 25.907 34.513 36.405
H 25.552 33.702 37.049
C 25.453 33.917 34.994
H 24.695 34.597 34.647
C 26.801 33.955 34.265
C 24.742 32.59  34.988
H 24.606 32.219 33.973
H 25.496 32.008 35.546
H 23.82  32.598 35.558
C 25.321 35.942 36.733
H 26.002 36.71  36.32 
H 25.383 36.065 37.819
C 23.849 36.274 36.573
H 23.288 35.529 36.02 
H 23.44  36.385 37.539
C 23.456 37.636 35.875
O 23.35  38.683 36.505
O 23.286 37.494 34.553
N 29.181 34.008 32.478
C 27.915 33.914 32.067
C 27.945 33.649 30.66 
C 29.202 33.944 30.208
C 30.003 34.048 31.342
C 26.699 33.537 29.736
H 26.748 33.242 28.707
H 26.024 32.859 30.222
H 26.131 34.497 29.741
C 29.628 33.876 28.801
H 30.23  34.679 28.504
C 29.407 32.839 27.988
H 28.793 31.989 28.294
H 29.821 32.789 26.961
N 31.805 34.212 33.928
C 32.22  34.269 32.636
C 33.643 34.529 32.707
C 34.064 34.384 34.014
C 32.883 34.068 34.818
C 34.597 34.727 31.529
H 34.15  34.739 30.51 
H 35.101 35.742 31.617
H 35.321 33.996 31.564
C 35.443 34.336 34.57 
H 35.389 33.852 35.546
H 36.025 33.719 33.917
C 35.94  35.762 34.676
H 35.353 36.182 35.52 
H 37.009 35.674 34.98 
H 35.679 36.325 33.796
N 30.432 34.15  36.364
C 31.64  33.946 36.937
C 31.565 33.961 38.346
C 30.254 34.174 38.598
C 29.641 34.324 37.326
C 32.666 33.802 39.33 
H 32.669 34.423 40.181
H 32.742 32.746 39.699
H 33.646 33.966 38.854
C 29.214 34.431 39.623
O 29.216 34.455 40.85 
C 27.906 34.518 38.857
H 27.388 35.355 39.056
C 27.125 33.384 39.29 
O 27.331 32.24  39.038
O 25.959 33.849 39.921
C 24.909 32.821 40.125
H 24.423 32.64  39.189
H 25.364 31.963 40.594
H 24.118 33.19  40.802
C 22.774 38.628 33.83 
H 23.663 39.234 33.571
H 21.994 39.205 34.363
C 22.068 38.117 32.531
H 22.721 37.443 32.012
C 20.831 38.438 31.986
C 19.788 39.414 32.485
H 19.717 40.204 31.748
H 18.884 38.845 32.515
H 20.074 39.767 33.493
C 20.454 37.803 30.643
H 21.311 37.124 30.392
H 20.312 38.567 29.824
C 19.226 36.765 30.58 
H 18.889 36.637 31.539
H 19.628 35.773 30.322
C 18.082 37.337 29.73 
H 18.517 38.232 29.15 
H 17.155 37.548 30.271
C 17.713 36.407 28.51 
H 18.619 36.082 28.057
C 16.902 37.226 27.413
H 17.574 38.101 27.148
H 16.771 36.654 26.537
H 15.933 37.639 27.645
C 16.878 35.266 28.954
H 17.566 34.753 29.628
H 16.696 34.561 28.142
C 15.562 35.667 29.634
H 15.486 36.665 29.805
H 15.521 35.175 30.58 
C 14.244 35.289 28.782
H 14.528 35.254 27.671
H 13.508 36.161 28.724
C 13.551 33.971 29.242
H 13.311 34.05  30.278
C 14.475 32.697 29.116
H 14.802 32.478 28.085
H 15.32  32.903 29.775
H 14.103 31.739 29.511
C 12.204 33.722 28.435
H 12.539 33.49  27.438
H 11.788 34.752 28.363
C 11.227 32.754 29.113
H 10.499 33.385 29.733
H 11.76  32.038 29.765
C 10.464 32.    28.027
H 10.172 31.117 28.547
H 11.098 31.594 27.17 
C  9.133 32.595 27.473
H  8.427 32.743 28.347
C  8.435 31.627 26.444
H  7.437 31.985 26.157
H  8.958 31.605 25.415
H  8.31  30.62  26.834
C  9.193 34.039 26.841
H  8.193 34.467 26.635
H  9.81  34.711 27.498
H  9.689 33.795 25.91 
