137

Mg 30.848 30.479 34.106
C 29.822 27.904 31.996
C 33.435 31.064 31.945
H 34.201 31.358 31.196
C 31.58  33.244 35.878
H 31.861 34.065 36.567
C 27.806 30.158 35.75 
H 26.917 29.888 36.327
N 31.631 29.549 32.242
C 30.938 28.58  31.488
C 31.677 28.139 30.256
H 31.928 27.13  30.414
C 32.979 29.054 30.304
H 32.922 29.736 29.456
C 32.741 29.944 31.569
C 34.319 28.185 30.247
H 34.528 27.656 31.205
H 34.17  27.362 29.414
H 35.115 28.861 29.892
C 30.872 28.471 28.967
H 30.864 29.506 28.562
H 29.827 28.244 29.259
C 31.139 27.574 27.797
H 31.652 28.1   26.991
H 31.725 26.702 28.044
C 30.046 26.766 27.038
O 29.995 26.514 25.853
O 29.028 26.391 27.89 
N 32.352 31.815 33.97 
C 33.299 31.942 33.025
C 34.179 33.091 33.429
C 33.622 33.703 34.531
C 32.454 32.921 34.799
C 35.374 33.421 32.67 
H 35.029 34.369 32.196
H 36.275 33.512 33.171
H 35.527 32.576 31.974
C 33.984 34.924 35.33 
H 33.829 35.047 36.391
C 34.541 35.972 34.708
H 34.747 35.982 33.619
H 34.857 36.894 35.259
N 29.889 31.493 35.66 
C 30.37  32.617 36.279
C 29.451 32.932 37.315
C 28.399 32.032 37.232
C 28.648 31.18  36.122
C 29.677 34.055 38.294
H 30.437 33.745 38.949
H 30.148 34.956 37.953
H 28.676 34.313 38.801
C 27.159 31.953 38.182
H 27.002 30.95  38.579
H 27.428 32.442 39.18 
C 25.909 32.464 37.52 
H 25.181 32.686 38.255
H 26.164 33.427 37.019
H 25.565 31.722 36.82 
N 29.22  29.236 33.983
C 28.069 29.185 34.74 
C 27.287 28.093 34.307
C 27.987 27.496 33.315
C 29.105 28.301 33.078
C 26.008 27.568 34.965
H 25.153 28.089 34.754
H 25.95  26.534 34.682
H 26.023 27.566 36.048
C 27.881 26.444 32.324
O 27.026 25.658 32.132
C 29.18  26.581 31.505
H 28.864 26.506 30.521
C 29.874 25.312 31.735
O 30.888 25.156 32.355
O 29.192 24.204 31.232
C 29.789 22.898 31.213
H 29.28  22.211 31.928
H 29.718 22.535 30.179
H 30.884 22.973 31.343
C 27.965 25.643 27.162
H 28.353 24.742 26.809
H 27.489 26.097 26.297
C 26.924 25.166 28.158
H 26.27  25.994 28.496
C 26.495 23.92  28.468
C 27.09  22.612 27.868
H 27.896 22.766 27.121
H 27.508 21.965 28.707
H 26.44 21.96 27.32
C 25.205 23.826 29.272
H 24.981 24.524 30.044
H 25.179 22.891 29.835
C 23.981 23.836 28.305
H 23.581 22.868 28.238
H 24.294 24.111 27.312
C 22.864 24.855 28.786
H 23.11  25.475 29.667
H 22.062 24.237 29.078
C 22.201 25.65  27.648
H 22.254 24.861 26.868
C 23.187 26.826 27.164
H 24.166 26.383 26.944
H 22.824 27.243 26.216
H 23.149 27.572 27.923
C 20.748 26.191 27.88 
H 20.108 25.373 28.169
H 20.412 26.669 26.964
C 20.721 27.264 29.003
H 20.566 28.194 28.527
H 21.624 27.426 29.617
C 19.488 27.054 29.911
H 18.882 26.289 29.536
H 18.911 28.009 29.935
C 19.851 26.833 31.406
H 20.319 27.754 31.728
C 20.837 25.627 31.621
H 20.946 25.418 32.621
H 20.4   24.838 31.071
H 21.855 25.938 31.237
C 18.537 26.757 32.305
H 17.972 25.981 31.89 
H 17.866 27.636 32.255
C 18.749 26.465 33.835
H 18.223 27.13  34.474
H 19.854 26.529 34.078
C 18.29  25.053 34.181
H 19.103 24.346 33.789
H 17.38  24.808 33.65 
C 18.081 24.741 35.683
H 17.42  25.412 36.163
C 19.356 24.612 36.617
H 19.029 24.476 37.619
H 19.991 23.821 36.192
H 19.777 25.619 36.591
C 17.388 23.359 35.767
H 17.972 22.56  35.455
H 17.165 23.213 36.759
H 16.522 23.459 35.082
