137

Mg 28.701 31.208 33.474
C 27.788 27.923 33.047
C 30.002 31.209 30.271
H 30.546 31.072 29.302
C 29.894 34.227 34.018
H 30.467 35.172 34.076
C 28.047 30.86  36.859
H 27.878 30.826 37.998
N 28.767 29.826 31.884
C 28.218 28.587 31.881
C 28.259 27.828 30.522
H 28.588 26.869 30.679
C 29.258 28.707 29.773
H 28.829 28.986 28.814
C 29.363 30.013 30.668
C 30.659 27.986 29.47 
H 31.088 27.677 30.441
H 30.559 27.134 28.809
H 31.26  28.75  29.022
C 26.774 27.68  29.895
H 26.461 28.647 29.588
H 26.119 27.367 30.708
C 26.738 26.743 28.625
H 25.839 26.95  28.093
H 27.587 26.972 28.022
C 26.915 25.261 28.854
O 27.921 24.71  29.295
O 25.71  24.653 28.616
N 29.646 32.602 32.217
C 30.1   32.458 30.896
C 30.545 33.725 30.421
C 30.575 34.585 31.588
C 29.992 33.792 32.697
C 30.857 33.972 28.985
H 30.719 33.173 28.312
H 30.203 34.826 28.711
H 31.887 34.287 29.004
C 30.961 36.018 31.484
H 31.676 36.246 30.701
C 30.301 37.011 32.128
H 29.465 36.85  32.828
H 30.709 38.05  31.84 
N 28.846 32.4   35.163
C 29.327 33.678 35.146
C 29.177 34.317 36.48 
C 28.641 33.291 37.338
C 28.493 32.111 36.465
C 29.647 35.722 36.879
H 29.809 36.191 35.891
H 28.869 36.284 37.477
H 30.49  35.66  37.505
C 28.284 33.373 38.833
H 28.545 32.545 39.376
H 28.646 34.308 39.346
C 26.745 33.489 39.014
H 26.433 34.482 38.658
H 26.108 32.818 38.519
H 26.592 33.481 40.088
N 28.043 29.778 34.691
C 27.762 29.756 36.058
C 27.337 28.451 36.436
C 27.324 27.721 35.266
C 27.761 28.561 34.215
C 27.117 28.011 37.9  
H 27.806 27.2   38.019
H 27.479 28.687 38.631
H 26.096 27.694 38.078
C 27.073 26.39  34.705
O 26.702 25.339 35.225
C 27.279 26.488 33.211
H 26.356 26.281 32.659
C 28.392 25.477 32.919
O 29.544 25.631 33.231
O 27.929 24.327 32.348
C 28.862 23.193 32.54 
H 29.727 23.274 31.87 
H 29.291 23.137 33.525
H 28.363 22.245 32.263
C 25.583 23.287 29.197
H 25.59  23.43  30.263
H 26.307 22.622 28.677
C 24.125 22.7   29.02 
H 23.406 23.31  29.535
C 23.753 21.748 28.174
C 24.697 21.051 27.158
H 25.167 21.877 26.623
H 25.559 20.536 27.617
H 24.134 20.471 26.466
C 22.249 21.406 28.119
H 21.903 21.869 29.026
H 22.092 20.322 28.157
C 21.402 22.007 27.001
H 21.029 21.159 26.541
H 22.049 22.577 26.31 
C 20.292 23.038 27.43 
H 20.412 23.953 26.969
H 20.334 23.275 28.504
C 18.877 22.68  27.01 
H 18.992 22.459 25.941
C 17.985 23.954 26.989
H 18.063 24.438 27.981
H 18.329 24.71  26.274
H 16.934 23.741 26.84 
C 18.193 21.358 27.575
H 18.816 20.521 27.383
H 17.264 21.373 27.061
C 17.955 21.34  29.062
H 16.981 21.713 29.043
H 18.573 22.116 29.648
C 17.849 19.944 29.639
H 17.894 19.177 28.887
H 16.86  19.765 30.173
C 18.996 19.566 30.592
H 19.775 20.342 30.731
C 19.729 18.277 30.232
H 18.991 17.548 30.065
H 20.334 18.418 29.295
H 20.406 17.987 31.055
C 18.371 19.286 32.034
H 19.092 18.799 32.702
H 17.624 18.543 31.861
C 17.89  20.522 32.773
H 18.142 21.507 32.32 
H 18.546 20.457 33.616
C 16.412 20.402 33.356
H 16.465 20.178 34.391
H 15.986 19.511 32.843
C 15.39  21.529 33.093
H 15.474 21.754 32.049
C 15.602 22.8   33.892
H 15.485 23.646 33.163
H 14.966 23.013 34.782
H 16.654 22.733 34.234
C 13.912 21.175 33.095
H 13.614 21.019 34.124
H 13.463 22.031 32.713
H 13.695 20.428 32.419
