137

Mg 29.741 29.051 42.14 
C 26.628 30.076 43.272
C 28.711 29.363 38.987
H 28.581 29.511 37.928
C 32.696 27.822 41.12 
H 33.622 27.481 40.66 
C 30.712 28.772 45.529
H 31.032 28.781 46.544
N 27.833 29.51  41.203
C 26.702 29.955 41.84 
C 25.514 29.956 40.754
H 24.887 29.09  40.996
C 26.199 29.668 39.395
H 26.114 30.491 38.705
C 27.686 29.542 39.891
C 25.508 28.477 38.71 
H 26.017 28.394 37.748
H 25.704 27.5   39.177
H 24.402 28.593 38.585
C 24.655 31.187 40.77 
H 25.232 31.977 40.37 
H 24.324 31.574 41.74 
C 23.318 31.112 40.007
H 22.943 30.165 39.849
H 22.403 31.527 40.551
C 23.212 31.715 38.645
O 23.23  32.927 38.415
O 23.255 30.752 37.64 
N 30.61  28.688 40.33 
C 30.023 28.961 39.113
C 31.034 28.766 38.042
C 32.169 28.308 38.635
C 31.823 28.262 40.091
C 30.791 28.928 36.58 
H 30.244 29.825 36.462
H 31.735 28.984 35.996
H 30.114 28.158 36.132
C 33.51  27.953 38.179
H 34.376 28.281 38.688
C 33.754 27.385 36.976
H 32.968 27.054 36.228
H 34.778 27.198 36.566
N 31.449 28.461 43.168
C 32.581 27.884 42.539
C 33.542 27.567 43.592
C 32.978 28.019 44.764
C 31.66  28.475 44.536
C 34.901 26.938 43.343
H 35.168 26.279 44.125
H 34.936 26.476 42.374
H 35.522 27.764 43.237
C 33.804 27.948 46.065
H 33.283 27.317 46.756
H 34.765 27.482 45.883
C 34.074 29.172 46.824
H 34.444 29.918 46.087
H 33.142 29.617 47.228
H 34.76  28.937 47.609
N 28.912 29.385 44.065
C 29.447 29.259 45.334
C 28.484 29.85  46.263
C 27.385 30.123 45.47 
C 27.678 29.836 44.116
C 28.603 29.981 47.696
H 29.531 30.413 48.035
H 27.672 30.486 48.078
H 28.638 28.986 48.113
C 26.042 30.638 45.576
O 25.477 31.119 46.56 
C 25.463 30.645 44.068
H 25.174 31.667 43.874
C 24.255 29.775 44.007
O 24.354 28.561 43.886
O 23.114 30.513 44.17 
C 21.926 29.704 44.044
H 21.788 29.124 43.134
H 21.913 28.936 44.84 
H 21.013 30.238 44.32 
C 23.402 31.253 36.279
H 24.299 31.851 36.274
H 22.502 31.864 36.047
C 23.692 30.039 35.407
H 24.752 29.581 35.558
C 22.85  29.49  34.554
C 21.398 29.762 34.347
H 20.873 28.951 34.718
H 21.127 30.693 34.851
H 21.204 29.988 33.295
C 23.288 28.377 33.689
H 24.411 28.394 33.736
H 23.047 28.574 32.595
C 22.892 26.991 34.09 
H 22.475 26.993 35.057
H 23.865 26.462 34.186
C 22.128 26.085 33.101
H 22.8   25.294 32.923
H 21.956 26.403 32.06 
C 20.905 25.344 33.662
H 21.222 24.927 34.586
C 20.769 24.107 32.651
H 19.736 23.859 32.572
H 21.071 24.189 31.609
H 21.271 23.248 33.148
C 19.598 26.226 33.771
H 19.825 27.153 34.351
H 18.854 25.686 34.447
C 18.991 26.611 32.409
H 19.599 26.155 31.666
H 19.012 27.678 32.237
C 17.538 26.198 32.266
H 16.997 26.998 32.821
H 17.41  25.253 32.813
C 16.916 25.83  30.838
H 17.546 25.044 30.346
C 16.975 27.058 29.832
H 16.83  26.789 28.729
H 16.159 27.651 30.081
H 17.823 27.652 29.999
C 15.529 25.297 31.049
H 14.916 26.076 31.459
H 15.504 24.48  31.831
C 14.854 24.617 29.888
H 15.181 23.621 29.905
H 15.158 25.091 28.944
C 13.239 24.89  29.926
H 13.04  25.393 29.017
H 12.785 25.486 30.76 
C 12.247 23.721 29.966
H 12.453 23.065 29.114
C 10.815 24.312 29.659
H 10.895 24.846 28.693
H 10.123 23.46  29.537
H 10.406 24.848 30.472
C 12.202 22.778 31.197
H 11.492 22.027 31.009
H 13.105 22.229 31.359
H 11.926 23.299 32.083
