137

Mg 21.576 32.456 32.477
C 21.069 29.035 31.86 
C 18.271 32.744 33.118
H 17.227 32.899 33.47 
C 22.12  35.692 33.035
H 22.134 36.766 33.281
C 24.748 32.276 31.027
H 25.673 32.032 30.514
N 19.887 31.034 32.59 
C 19.955 29.637 32.367
C 18.597 29.074 32.672
H 18.277 28.592 31.732
C 17.617 30.345 32.787
H 17.065 30.244 33.729
C 18.645 31.438 32.804
C 16.455 30.49  31.775
H 16.768 30.237 30.748
H 15.562 29.863 32.062
H 16.146 31.548 31.804
C 18.497 28.152 33.963
H 18.312 28.81  34.864
H 19.363 27.579 34.089
C 17.366 27.226 33.994
H 16.838 27.182 33.088
H 17.66  26.251 34.333
C 16.351 27.369 35.119
O 16.492 26.883 36.199
O 15.224 28.099 34.804
N 20.437 33.946 33.065
C 19.086 33.956 33.38 
C 18.747 35.042 34.172
C 19.81  35.945 34.04 
C 20.853 35.172 33.379
C 17.452 35.242 34.859
H 17.282 36.301 34.745
H 16.681 34.578 34.433
H 17.572 34.965 35.857
C 19.935 37.331 34.46 
H 20.31  38.036 33.664
C 19.397 37.85  35.604
H 18.878 37.215 36.378
H 19.534 38.913 35.952
N 23.189 33.806 32.046
C 23.217 35.131 32.312
C 24.44  35.758 31.729
C 25.146 34.725 31.104
C 24.335 33.516 31.407
C 24.858 37.127 31.923
H 24.642 37.601 30.973
H 24.313 37.51  32.803
H 25.92  37.091 32.206
C 26.514 34.854 30.501
H 26.576 34.377 29.529
H 26.922 35.837 30.461
C 27.629 34.114 31.297
H 28.621 34.171 30.744
H 27.814 34.603 32.217
H 27.329 33.11  31.519
N 22.655 31.019 31.575
C 23.988 31.067 31.075
C 24.395 29.737 30.588
C 23.28  28.963 30.986
C 22.312 29.741 31.551
C 25.69  29.274 30.053
H 26.122 30.018 29.432
H 26.233 29.006 30.935
H 25.539 28.302 29.56 
C 22.782 27.596 30.928
O 23.314 26.58  30.53 
C 21.329 27.609 31.534
H 21.383 27.11  32.473
C 20.306 27.058 30.639
O 19.762 27.504 29.603
O 20.071 25.788 30.994
C 19.107 25.115 30.09 
H 18.015 25.37  30.301
H 19.349 25.303 29.073
H 19.263 24.062 30.291
C 14.161 28.154 35.8  
H 14.576 28.042 36.837
H 13.425 27.349 35.565
C 13.507 29.527 35.684
H 12.555 29.404 35.215
C 13.824 30.675 36.289
C 15.033 30.889 37.112
H 15.9   30.357 36.739
H 15.365 31.948 37.11 
H 14.676 30.673 38.119
C 12.701 31.773 36.123
H 11.808 31.391 35.561
H 13.13  32.511 35.503
C 12.265 32.456 37.465
H 13.117 32.851 38.022
H 11.784 31.712 38.186
C 11.264 33.627 37.261
H 10.458 33.288 37.857
H 10.98  33.596 36.185
C 11.774 35.019 37.634
H 12.146 35.119 38.647
C 10.632 36.082 37.553
H 11.028 37.153 37.428
H  9.984 35.842 36.798
H 10.071 35.87  38.507
C 13.058 35.471 36.843
H 13.9   34.864 37.013
H 13.391 36.513 37.186
C 12.922 35.584 35.288
H 11.875 35.559 35.105
H 13.357 34.645 34.861
C 13.661 36.837 34.748
H 14.745 36.895 35.119
H 13.23  37.704 35.121
C 13.517 37.072 33.214
H 12.478 37.229 32.963
C 14.048 35.951 32.273
H 15.095 35.765 32.621
H 13.363 35.047 32.329
H 14.142 36.243 31.191
C 14.335 38.362 32.853
H 14.54  38.462 31.791
H 15.305 38.241 33.244
C 13.721 39.778 33.206
H 12.623 39.682 33.474
H 13.689 40.41  32.345
C 14.359 40.52  34.376
H 14.692 39.796 35.129
H 13.646 41.128 34.881
C 15.558 41.528 33.997
H 15.073 42.272 33.341
C 16.736 40.73  33.372
H 16.41  39.954 32.705
H 17.333 41.424 32.688
H 17.319 40.231 34.2  
C 16.024 42.335 35.216
H 16.947 42.967 34.959
H 15.243 43.04  35.479
H 16.216 41.703 36.069
