137

Mg 20.371 26.208 29.678
C 23.361 24.676 30.882
C 20.689 28.372 32.346
H 20.913 29.103 33.066
C 17.719 27.801 28.529
H 17.039 28.481 28.135
C 20.305 23.914 27.291
H 20.205 23.198 26.519
N 21.828 26.526 31.312
C 23.092 25.922 31.44 
C 23.885 26.596 32.573
H 23.972 25.774 33.296
C 23.029 27.683 33.142
H 23.341 28.653 32.805
C 21.769 27.528 32.236
C 22.806 27.52  34.655
H 23.759 27.48  35.231
H 22.198 28.359 34.962
H 22.317 26.583 34.827
C 25.297 27.045 32.06 
H 25.237 27.752 31.222
H 25.842 26.12  31.797
C 26.243 27.633 33.109
H 25.847 27.689 34.131
H 27.202 27.103 33.056
C 26.563 29.162 32.899
O 27.62  29.678 33.102
O 25.426 29.863 32.78 
N 19.206 27.705 30.505
C 19.506 28.517 31.604
C 18.513 29.642 31.616
C 17.7   29.455 30.498
C 18.197 28.25  29.798
C 18.606 30.84  32.618
H 18.239 30.415 33.572
H 19.66  30.964 32.744
H 18.091 31.702 32.21 
C 16.499 30.224 30.051
H 16.315 30.278 28.945
C 15.708 30.881 30.887
H 15.833 30.921 31.989
H 14.823 31.429 30.423
N 19.14  25.814 28.239
C 18.009 26.549 27.966
C 17.262 25.84  26.91 
C 18.006 24.732 26.557
C 19.213 24.775 27.391
C 15.866 26.168 26.439
H 15.929 26.886 25.65 
H 15.375 25.218 26.16 
H 15.414 26.7   27.312
C 17.63  23.606 25.497
H 16.864 23.857 24.798
H 18.456 23.285 24.915
C 17.198 22.264 26.139
H 16.961 21.628 25.285
H 18.019 21.777 26.57 
H 16.402 22.406 26.822
N 21.559 24.675 29.115
C 21.368 23.775 28.138
C 22.341 22.761 28.082
C 23.102 23.026 29.174
C 22.627 24.21  29.756
C 22.659 21.75  26.928
H 23.74  21.356 27.147
H 22.069 20.771 26.974
H 22.815 22.37  26.006
C 24.322 22.646 29.922
O 25.211 21.854 29.623
C 24.403 23.619 31.136
H 25.345 24.002 31.267
C 24.055 22.839 32.319
O 23.242 21.949 32.43 
O 24.728 23.358 33.375
C 24.649 22.612 34.633
H 23.73  22.21  34.964
H 25.351 21.742 34.712
H 24.876 23.286 35.44 
C 25.528 31.307 32.757
H 25.97  31.721 31.874
H 26.038 31.649 33.596
C 24.133 31.851 32.693
H 23.482 31.295 33.349
C 23.603 32.903 31.986
C 24.479 33.782 31.133
H 25.44  33.761 31.626
H 24.646 33.484 30.056
H 24.028 34.814 31.163
C 22.125 33.13  32.032
H 21.696 32.242 32.531
H 21.879 33.049 31.016
C 21.753 34.408 32.68 
H 22.658 34.832 33.181
H 20.993 34.254 33.457
C 21.167 35.489 31.817
H 21.076 35.113 30.774
H 21.881 36.36  31.933
C 19.75  36.035 32.257
H 19.904 36.192 33.324
C 18.63  35.086 32.011
H 18.718 34.273 32.699
H 17.716 35.692 32.045
H 18.631 34.605 30.972
C 19.346 37.418 31.539
H 18.383 37.87  31.724
H 19.459 37.267 30.469
C 20.468 38.549 31.55 
H 20.966 38.512 30.594
H 21.013 38.238 32.406
C 19.79  39.899 31.926
H 19.391 39.715 32.924
H 18.918 40.047 31.323
C 20.613 41.12  31.87 
H 21.345 40.995 31.128
C 21.477 41.171 33.223
H 20.831 41.437 34.107
H 21.933 40.199 33.322
H 22.327 41.863 33.223
C 19.836 42.445 31.555
H 19.277 42.582 32.458
H 19.149 42.286 30.71 
C 20.633 43.578 30.979
H 20.515 43.707 29.938
H 21.671 43.37  31.16 
C 20.352 44.996 31.586
H 21.29  45.336 32.031
H 19.543 44.906 32.305
C 19.742 46.079 30.681
H 20.241 46.251 29.751
C 19.569 47.388 31.447
H 19.122 48.078 30.702
H 18.839 47.15  32.246
H 20.437 47.811 31.91 
C 18.354 45.584 30.186
H 17.642 45.191 30.943
H 17.913 46.466 29.7  
H 18.546 44.739 29.534
