137

Mg 29.787 33.072 35.249
C 30.602 29.774 35.681
C 28.272 32.228 32.164
H 27.756 31.886 31.256
C 28.636 36.303 34.851
H 28.187 37.33  34.907
C 31.159 33.903 38.216
H 31.564 34.113 39.237
N 29.496 31.239 34.004
C 29.925 29.977 34.443
C 29.564 28.907 33.34 
H 30.488 28.483 32.874
C 28.839 29.734 32.233
H 27.84  29.324 32.09 
C 28.861 31.166 32.793
C 29.546 29.608 30.873
H 30.548 29.907 31.086
H 29.6   28.538 30.645
H 29.133 30.106 29.998
C 28.76  27.657 33.96 
H 27.898 27.98  34.519
H 29.438 27.066 34.607
C 28.217 26.675 32.976
H 27.171 26.826 32.942
H 28.653 26.853 32.035
C 28.396 25.116 33.228
O 29.403 24.521 33.59 
O 27.241 24.432 32.932
N 28.602 34.092 33.789
C 28.124 33.576 32.661
C 27.411 34.562 31.917
C 27.429 35.777 32.688
C 28.193 35.413 33.882
C 26.805 34.36  30.587
H 26.634 35.298 30.029
H 27.406 33.707 29.882
H 25.899 33.767 30.721
C 26.615 37.011 32.465
H 27.029 37.911 32.992
C 25.524 37.245 31.76 
H 24.956 36.518 31.215
H 24.969 38.236 31.931
N 30.038 34.787 36.219
C 29.487 36.043 35.908
C 30.046 37.07  36.833
C 30.699 36.329 37.799
C 30.579 34.946 37.435
C 29.684 38.56  36.833
H 30.373 39.052 36.136
H 28.736 38.768 36.328
H 29.706 38.957 37.87 
C 31.396 36.828 39.065
H 32.288 36.243 39.177
H 31.637 37.903 38.962
C 30.478 36.628 40.278
H 31.043 36.807 41.191
H 29.618 37.258 40.216
H 30.095 35.556 40.341
N 30.73  32.083 36.612
C 31.226 32.549 37.812
C 31.864 31.515 38.547
C 31.627 30.386 37.734
C 30.901 30.785 36.581
C 32.616 31.704 39.885
H 32.037 32.306 40.627
H 32.903 30.742 40.267
H 33.556 32.265 39.655
C 31.964 29.001 37.62 
O 32.515 28.182 38.36 
C 31.344 28.57  36.282
H 30.636 27.755 36.593
C 32.398 27.849 35.533
O 33.096 28.365 34.699
O 32.39  26.551 35.764
C 33.331 25.653 35.1  
H 33.37  25.723 34.002
H 34.322 25.824 35.532
H 33.134 24.595 35.274
C 27.321 22.958 33.156
H 27.604 22.83  34.198
H 27.948 22.429 32.446
C 25.902 22.452 32.784
H 25.647 22.672 31.728
C 25.053 21.77  33.583
C 25.377 21.545 35.032
H 24.656 20.769 35.426
H 26.368 21.025 35.048
H 25.403 22.497 35.582
C 23.631 21.395 33.068
H 23.395 22.143 32.221
H 22.882 21.692 33.758
C 23.393 19.962 32.683
H 22.404 19.673 32.948
H 24.114 19.319 33.174
C 23.476 19.865 31.087
H 24.36 20.36 30.76
H 22.584 20.334 30.642
C 23.649 18.404 30.656
H 24.672 18.104 30.92 
C 23.632 18.46  29.198
H 23.891 17.44  28.837
H 22.628 18.7   28.818
H 24.489 19.156 28.793
C 22.69  17.367 31.278
H 22.984 17.191 32.306
H 22.891 16.427 30.852
C 21.215 17.551 31.072
H 20.875 16.773 30.408
H 21.165 18.446 30.45 
C 20.393 17.731 32.403
H 20.033 18.786 32.463
H 21.089 17.554 33.261
C 19.14  16.822 32.522
H 18.635 16.867 31.546
C 18.133 17.361 33.571
H 18.57  17.239 34.578
H 17.985 18.456 33.368
H 17.173 16.895 33.604
C 19.563 15.401 32.891
H 20.002 15.454 33.862
H 20.326 15.043 32.158
C 18.411 14.362 32.951
H 17.553 14.732 32.433
H 18.172 14.32  34.039
C 18.832 13.013 32.401
H 19.552 13.049 31.632
H 17.918 12.643 31.992
C 19.375 11.931 33.469
H 18.526 11.537 34.038
C 20.493 12.55  34.38 
H 21.22  12.926 33.634
H 20.237 13.392 34.981
H 20.988 11.765 34.996
C 20.003 10.7   32.705
H 19.212 10.027 32.318
H 20.644 10.993 31.827
H 20.507 10.026 33.352
