137

Mg 36.021 28.939 33.903
C 32.672 28.776 34.615
C 35.264 27.956 30.757
H 35.095 27.641 29.698
C 39.258 29.318 33.164
H 40.244 29.459 32.785
C 36.651 29.64  37.315
H 36.935 29.878 38.338
N 34.14  28.536 32.814
C 32.888 28.468 33.303
C 31.94  28.008 32.178
H 31.435 27.133 32.651
C 32.823 27.569 31.02 
H 32.479 28.092 30.111
C 34.182 28.024 31.559
C 32.657 26.127 30.511
H 33.55  25.78  29.947
H 32.477 25.446 31.333
H 31.876 26.034 29.801
C 30.816 29.129 31.887
H 31.303 30.104 31.673
H 30.216 29.276 32.7  
C 29.794 28.743 30.836
H 29.049 29.488 30.559
H 30.271 28.663 29.887
C 28.934 27.45  30.983
O 29.354 26.357 31.289
O 27.667 27.672 30.57 
N 37.083 28.718 32.192
C 36.596 28.237 31.012
C 37.683 28.282 30.012
C 38.843 28.65  30.71 
C 38.465 28.882 32.093
C 37.469 28.034 28.514
H 38.421 28.097 27.96 
H 36.997 27.039 28.467
H 36.696 28.657 28.108
C 40.184 28.743 30.058
H 40.29  29.379 29.203
C 41.225 27.939 30.436
H 41.147 27.276 31.3  
H 42.221 27.992 29.95 
N 37.634 29.347 35.009
C 38.918 29.446 34.477
C 39.845 29.776 35.54 
C 39.109 29.874 36.708
C 37.693 29.621 36.336
C 41.355 30.052 35.417
H 41.42  31.163 35.408
H 41.919 29.603 36.279
H 41.689 29.532 34.516
C 39.656 30.353 38.095
H 39.111 29.83  38.899
H 40.737 30.124 38.219
C 39.494 31.86  38.343
H 39.986 32.198 39.233
H 39.829 32.469 37.486
H 38.466 32.228 38.224
N 34.967 29.078 35.65 
C 35.341 29.381 37.007
C 34.162 29.331 37.838
C 33.069 29.154 36.914
C 33.613 28.98  35.628
C 34.164 29.5   39.351
H 34.863 28.846 39.834
H 34.441 30.439 39.632
H 33.156 29.377 39.783
C 31.682 29.043 36.844
O 30.852 29.154 37.746
C 31.365 28.847 35.318
H 30.797 29.745 35.265
C 30.607 27.569 35.21 
O 31.012 26.421 35.424
O 29.338 27.763 34.777
C 28.593 26.548 34.506
H 28.764 25.897 35.456
H 27.525 26.663 34.321
H 28.957 26.014 33.623
C 26.782 26.554 30.371
H 26.76  25.841 31.222
H 27.073 26.041 29.444
C 25.462 27.189 30.05 
H 25.451 27.901 29.235
C 24.245 26.856 30.519
C 23.829 25.796 31.502
H 23.322 26.343 32.323
H 23.125 25.047 31.082
H 24.637 25.299 32.002
C 23.035 27.592 29.965
H 23.098 28.713 30.051
H 22.152 27.262 30.445
C 22.753 27.171 28.49 
H 21.838 26.61  28.368
H 23.429 26.389 28.126
C 22.883 28.269 27.463
H 23.429 27.925 26.609
H 23.48  29.14  27.859
C 21.586 28.494 26.658
H 20.692 28.567 27.316
C 21.294 27.385 25.569
H 20.353 27.719 25.153
H 22.082 27.222 24.829
H 21.004 26.438 26.013
C 21.565 29.854 25.896
H 20.872 29.809 25.05 
H 22.588 30.012 25.431
C 21.039 31.054 26.83 
H 20.829 30.793 27.886
H 20.14  31.354 26.329
C 21.957 32.297 26.914
H 22.838 32.196 26.453
H 22.272 32.556 27.917
C 21.166 33.627 26.428
H 20.336 33.906 27.016
C 20.686 33.454 24.955
H 21.141 32.708 24.378
H 19.633 33.199 25.09 
H 20.765 34.399 24.471
C 22.091 34.885 26.568
H 21.812 35.704 25.909
H 23.051 34.446 26.214
C 22.376 35.22  28.058
H 23.495 35.018 28.111
H 21.908 34.46  28.721
C 21.889 36.621 28.461
H 21.35  36.456 29.38 
H 21.264 37.    27.715
C 23.046 37.678 28.644
H 23.685 37.72  27.77 
C 24.084 37.134 29.702
H 23.533 36.957 30.675
H 24.462 36.097 29.437
H 24.946 37.848 29.654
C 22.499 39.03  29.055
H 23.176 39.84  28.992
H 21.742 39.412 28.352
H 22.105 39.078 30.101
