137

Mg 28.334 32.015 37.557
C 25.682 30.837 39.347
C 26.085 34.037 35.749
H 25.334 34.526 35.148
C 30.927 33.378 35.9  
H 31.664 33.803 35.22 
C 30.466 30.035 39.555
H 31.211 29.425 40.121
N 26.149 32.334 37.556
C 25.227 31.8   38.433
C 23.798 32.359 38.167
H 23.036 31.595 37.995
C 23.993 33.17  36.867
H 23.778 34.21  37.147
C 25.478 33.173 36.705
C 23.119 32.691 35.67 
H 23.202 31.622 35.489
H 22.024 32.85  35.88 
H 23.422 33.286 34.825
C 23.261 33.26  39.303
H 23.992 34.067 39.348
H 23.367 32.802 40.248
C 21.819 33.84  39.164
H 21.367 33.427 38.258
H 21.126 33.639 40.032
C 21.828 35.361 38.936
O 22.267 36.2   39.634
O 21.323 35.566 37.636
N 28.457 33.328 35.91 
C 27.449 34.034 35.35 
C 27.977 34.908 34.32 
C 29.375 34.644 34.228
C 29.658 33.725 35.352
C 27.021 35.773 33.532
H 26.621 36.513 34.25 
H 27.47  36.204 32.666
H 26.134 35.218 33.195
C 30.466 35.234 33.457
H 30.388 36.219 33.098
C 31.479 34.449 33.02 
H 31.383 33.386 33.214
H 32.332 34.825 32.415
N 30.312 31.871 37.749
C 31.248 32.552 37.022
C 32.614 32.065 37.378
C 32.411 31.048 38.306
C 30.995 30.938 38.59 
C 33.87  32.618 36.848
H 34.638 31.835 36.626
H 33.619 33.102 35.9  
H 34.268 33.281 37.566
C 33.544 30.475 39.118
H 33.326 29.413 39.267
H 34.523 30.624 38.669
C 33.636 31.062 40.538
H 33.703 32.145 40.508
H 32.662 30.748 40.978
H 34.44  30.691 41.101
N 28.224 30.779 39.229
C 29.102 30.024 39.916
C 28.455 29.192 40.913
C 27.087 29.507 40.756
C 27.02  30.46  39.718
C 29.135 28.275 41.97 
H 28.433 27.564 42.376
H 29.941 27.691 41.56 
H 29.524 28.918 42.772
C 25.749 29.307 41.284
O 25.435 28.72  42.3  
C 24.836 30.18  40.395
H 24.326 30.871 41.111
C 23.814 29.265 39.831
O 24.047 28.297 39.091
O 22.577 29.528 40.332
C 21.517 28.695 39.886
H 20.7   29.132 40.401
H 21.333 28.69  38.817
H 21.734 27.667 40.277
C 21.32  37.005 37.25 
H 22.37  37.264 37.238
H 20.819 37.71  38.002
C 20.604 37.093 35.91 
H 19.598 37.027 36.033
C 21.119 37.363 34.694
C 22.636 37.422 34.4  
H 23.287 37.335 35.257
H 22.82  36.464 33.83 
H 22.893 38.38  33.921
C 20.166 37.325 33.508
H 19.244 36.912 33.869
H 20.702 36.722 32.856
C 19.945 38.707 32.939
H 19.791 38.461 31.9  
H 20.766 39.307 33.023
C 18.666 39.368 33.544
H 18.948 40.296 34.016
H 18.218 38.805 34.375
C 17.463 39.616 32.584
H 17.789 40.435 31.854
C 16.297 40.283 33.393
H 16.735 41.246 33.77 
H 15.458 40.422 32.745
H 16.11  39.7   34.311
C 16.974 38.3   31.865
H 17.764 37.868 31.246
H 16.385 38.567 31.047
C 16.17  37.282 32.69 
H 15.089 37.383 32.526
H 16.575 37.396 33.725
C 16.383 35.811 32.195
H 16.86  35.235 32.956
H 17.089 35.774 31.41 
C 15.191 34.982 31.652
H 14.368 35.079 32.298
C 15.413 33.4   31.54 
H 14.424 32.946 31.398
H 16.113 33.26  30.714
H 15.887 33.085 32.426
C 14.841 35.606 30.193
H 15.663 35.194 29.567
H 14.877 36.712 30.193
C 13.465 35.236 29.646
H 12.778 36.101 29.658
H 13.19  34.492 30.36 
C 13.665 34.723 28.192
H 14.714 34.798 27.821
H 12.99  35.383 27.679
C 13.033 33.255 27.953
H 13.313 32.508 28.725
C 13.439 32.722 26.536
H 12.955 31.789 26.227
H 13.509 33.424 25.662
H 14.59 32.45 26.62
C 11.516 33.257 27.986
H 11.138 33.858 27.214
H 11.222 32.222 27.978
H 11.086 33.606 28.913
