137

Mg 25.53  32.89  36.579
C 23.541 32.234 39.26 
C 22.917 34.499 35.072
H 22.044 34.808 34.567
C 27.529 33.618 33.975
H 28.119 33.901 33.152
C 28.227 31.324 38.18 
H 29.136 30.882 38.723
N 23.511 33.353 37.156
C 22.856 32.977 38.294
C 21.412 33.387 38.254
H 20.855 32.456 38.315
C 21.179 33.841 36.799
H 20.672 34.845 36.811
C 22.643 33.936 36.324
C 20.194 32.995 35.948
H 20.549 31.925 36.069
H 19.323 33.201 36.532
H 20.122 33.35  34.927
C 21.119 34.469 39.31 
H 21.453 35.464 38.919
H 21.671 34.384 40.243
C 19.571 34.579 39.655
H 18.99  33.71  39.203
H 19.406 34.524 40.718
C 18.901 35.886 39.297
O 18.856 36.936 39.942
O 18.142 35.662 38.209
N 25.29  34.034 34.824
C 24.129 34.571 34.368
C 24.317 35.116 33.057
C 25.672 34.87  32.706
C 26.207 34.125 33.856
C 23.193 35.782 32.37 
H 22.638 36.366 33.065
H 23.616 36.495 31.602
H 22.571 34.966 31.927
C 26.449 35.301 31.564
H 27.49  35.66  31.757
C 25.85  35.52  30.374
H 24.845 35.21  30.14 
H 26.405 35.926 29.569
N 27.487 32.577 36.215
C 28.121 32.997 35.072
C 29.51  32.41  35.039
C 29.746 31.794 36.252
C 28.454 31.859 36.921
C 30.498 32.579 33.874
H 31.388 31.914 33.949
H 29.817 32.38  32.977
H 30.818 33.625 33.803
C 30.997 31.187 36.832
H 30.977 30.099 36.931
H 31.788 31.241 36.065
C 31.601 31.918 38.081
H 32.518 31.337 38.093
H 31.835 32.988 37.995
H 31.143 31.701 39.08 
N 25.846 31.945 38.215
C 27.009 31.374 38.795
C 26.673 30.855 40.204
C 25.308 31.185 40.326
C 24.886 31.867 39.213
C 27.583 30.221 41.138
H 28.634 30.424 40.934
H 27.335 30.576 42.109
H 27.399 29.193 41.158
C 24.232 31.087 41.287
O 24.312 30.652 42.43 
C 23.017 31.876 40.681
H 22.844 32.863 41.152
C 21.711 31.098 40.772
O 21.516 30.028 40.15 
O 20.723 31.715 41.597
C 19.49  30.922 41.872
H 18.786 31.546 42.465
H 18.999 30.64  40.954
H 19.781 30.089 42.502
C 17.113 36.672 38.041
H 17.665 37.564 37.736
H 16.643 36.73  39.036
C 15.888 36.415 37.071
H 15.465 37.401 36.694
C 15.317 35.249 36.677
C 15.638 33.877 37.176
H 15.747 33.144 36.35 
H 16.571 33.894 37.717
H 14.849 33.529 37.857
C 13.998 35.336 35.891
H 13.481 36.128 36.47 
H 13.442 34.433 36.185
C 13.994 35.478 34.316
H 13.554 34.535 33.962
H 14.954 35.603 33.901
C 13.114 36.672 33.876
H 13.07  37.332 34.668
H 12.087 36.328 33.825
C 13.508 37.453 32.536
H 14.618 37.521 32.474
C 12.965 38.871 32.439
H 13.468 39.544 33.152
H 13.06  39.254 31.43 
H 11.937 38.818 32.745
C 13.01  36.578 31.307
H 13.64  35.703 31.38 
H 13.384 37.113 30.444
C 11.468 36.379 31.205
H 11.045 36.732 30.331
H 11.038 36.965 32.012
C 11.006 34.914 31.496
H 10.412 34.964 32.425
H 11.865 34.409 31.945
C 10.309 34.217 30.298
H  9.458 34.803 30.018
C  9.857 32.831 30.705
H  9.256 32.292 29.989
H 10.806 32.318 30.982
H  9.254 32.96  31.61 
C 11.219 34.159 29.029
H 11.972 33.388 29.172
H 11.952 35.002 29.063
C 10.47  34.168 27.747
H 10.845 35.06  27.181
H  9.454 34.294 27.963
C 10.582 32.812 27.054
H  9.68  32.264 27.395
H 11.475 32.268 27.428
C 10.5   32.929 25.476
H  9.666 33.57  25.32 
C 10.167 31.541 24.925
H 10.319 31.549 23.805
H 10.841 30.843 25.339
H  9.189 31.229 25.303
C 11.879 33.406 24.99 
H 11.797 33.736 23.912
H 12.316 34.236 25.532
H 12.609 32.582 25.009
