137

Mg 30.002 30.227 39.504
C 26.875 29.818 40.707
C 28.975 28.953 36.394
H 28.738 28.351 35.534
C 33.083 30.511 38.294
H 34.073 30.637 37.915
C 31.154 30.806 42.684
H 31.432 31.068 43.723
N 28.126 29.652 38.559
C 26.961 29.677 39.27 
C 25.794 29.195 38.369
H 25.311 28.323 38.745
C 26.55  28.621 37.107
H 26.207 28.959 36.163
C 27.963 29.115 37.339
C 26.488 27.119 36.941
H 25.445 26.762 36.958
H 26.841 26.718 36.018
H 27.104 26.641 37.687
C 24.721 30.279 38.143
H 25.006 31.155 37.509
H 24.678 30.845 39.054
C 23.356 29.818 37.74 
H 23.036 28.96  38.366
H 22.769 30.647 38.087
C 22.981 29.426 36.264
O 22.917 30.181 35.296
O 22.749 28.095 36.166
N 30.825 29.951 37.646
C 30.27  29.482 36.466
C 31.22  29.503 35.405
C 32.42  30.047 35.937
C 32.118 30.265 37.36 
C 30.92  29.038 33.994
H 30.438 28.001 33.967
H 30.348 29.891 33.538
H 31.895 28.98  33.588
C 33.716 30.495 35.327
H 34.618 30.533 35.992
C 33.964 30.72  34.03 
H 33.206 30.66  33.268
H 34.936 31.012 33.735
N 31.892 30.484 40.389
C 33.036 30.598 39.667
C 34.144 30.832 40.589
C 33.557 30.944 41.861
C 32.16  30.799 41.713
C 35.604 31.101 40.144
H 36.312 30.462 40.636
H 35.836 30.989 39.09 
H 35.94  32.167 40.358
C 34.357 31.529 43.094
H 34.505 30.763 43.874
H 35.313 31.913 42.711
C 33.728 32.763 43.82 
H 34.503 33.247 44.534
H 33.335 33.515 43.143
H 32.962 32.43  44.544
N 29.167 30.497 41.313
C 29.784 30.609 42.517
C 28.718 30.62  43.59 
C 27.592 30.306 42.929
C 27.893 30.221 41.549
C 28.852 30.555 45.054
H 28.109 29.941 45.434
H 29.803 30.12  45.406
H 28.982 31.572 45.516
C 26.202 29.999 43.051
O 25.515 29.959 44.071
C 25.677 29.698 41.586
H 25.004 30.44  41.28 
C 25.087 28.428 41.711
O 25.618 27.388 42.012
O 23.742 28.522 41.614
C 23.01  27.253 41.607
H 21.964 27.6   41.587
H 23.193 26.667 40.725
H 23.089 26.756 42.561
C 22.512 27.8   34.76 
H 23.305 28.029 34.093
H 21.711 28.415 34.343
C 21.767 26.478 34.698
H 21.765 25.932 35.692
C 21.352 25.912 33.564
C 21.478 26.667 32.254
H 22.173 27.496 32.192
H 21.955 25.888 31.68 
H 20.556 26.901 31.687
C 20.888 24.474 33.523
H 21.389 23.915 34.264
H 20.941 23.928 32.573
C 19.445 24.207 33.921
H 18.839 25.117 33.981
H 19.607 23.622 34.828
C 18.646 23.363 32.867
H 19.151 22.35  32.867
H 18.848 23.721 31.809
C 17.192 22.99  33.209
H 17.214 22.748 34.315
C 16.559 21.824 32.366
H 15.538 21.597 32.698
H 16.426 22.192 31.37 
H 17.182 20.978 32.511
C 16.319 24.277 33.191
H 16.71  25.067 33.854
H 15.398 24.017 33.681
C 16.148 24.949 31.814
H 16.749 24.409 31.065
H 16.46  25.981 31.987
C 14.749 24.969 31.337
H 14.143 24.157 31.72 
H 14.737 25.014 30.267
C 14.002 26.274 31.791
H 14.677 27.091 31.485
C 13.827 26.396 33.359
H 13.062 25.736 33.601
H 14.717 26.102 33.948
H 13.575 27.386 33.736
C 12.602 26.456 31.106
H 12.057 25.597 31.385
H 12.903 26.457 30.049
C 11.809 27.762 31.598
H 11.476 28.311 30.696
H 12.526 28.444 32.027
C 10.677 27.384 32.547
H 10.881 26.472 33.001
H  9.714 27.221 32.052
C 10.414 28.361 33.736
H 11.264 28.379 34.343
C  9.297 27.859 34.669
H  9.598 26.904 35.023
H  9.253 28.532 35.536
H  8.283 27.861 34.274
C 10.09  29.779 33.229
H 10.674 29.981 32.372
H  9.06  29.863 33.049
H 10.367 30.529 33.986
