137

Mg 20.762 27.106 29.959
C 23.377 25.095 29.004
C 22.786 28.544 32.286
H 23.46  29.09  32.957
C 18.348 29.354 30.64 
H 17.59  30.083 30.802
C 18.913 25.929 27.299
H 18.348 25.58  26.432
N 22.775 26.874 30.562
C 23.652 25.973 29.99 
C 25.097 26.222 30.587
H 25.621 25.258 30.72 
C 24.87  27.072 31.848
H 25.531 27.973 31.947
C 23.376 27.525 31.544
C 24.915 26.168 33.064
H 25.951 25.916 33.405
H 24.507 26.683 33.878
H 24.391 25.27  32.914
C 26.031 26.975 29.464
H 25.365 27.864 29.193
H 26.102 26.351 28.588
C 27.5   27.193 29.875
H 27.703 26.823 30.914
H 28.138 26.669 29.195
C 28.049 28.563 29.999
O 29.127 28.939 29.572
O 27.119 29.358 30.61 
N 20.507 28.68  31.252
C 21.468 29.099 32.159
C 20.916 30.165 32.975
C 19.652 30.388 32.496
C 19.483 29.53  31.389
C 21.518 30.727 34.203
H 20.876 31.526 34.486
H 21.628 30.04  35.029
H 22.471 31.183 34.045
C 18.551 31.269 32.99 
H 17.553 30.936 32.724
C 18.639 32.461 33.539
H 19.615 32.963 33.774
H 17.769 33.061 33.803
N 18.855 27.36  29.218
C 18.034 28.422 29.628
C 16.742 28.291 28.989
C 16.874 27.36  27.972
C 18.221 26.79  28.131
C 15.557 29.253 29.225
H 14.684 28.773 29.589
H 15.845 29.994 29.905
H 15.316 29.731 28.291
C 15.789 26.93  27.002
H 14.962 27.592 26.995
H 16.226 27.058 25.959
C 15.227 25.533 27.288
H 14.825 25.568 28.337
H 14.524 25.202 26.528
H 16.062 24.87  27.227
N 20.952 25.716 28.479
C 20.15  25.327 27.45 
C 20.751 24.266 26.726
C 22.031 24.124 27.357
C 22.119 25.036 28.366
C 20.255 23.662 25.47 
H 20.985 23.316 24.738
H 19.564 22.869 25.71 
H 19.63  24.371 24.977
C 23.282 23.424 27.284
O 23.621 22.488 26.561
C 24.26  24.071 28.296
H 25.079 24.543 27.826
C 24.622 22.885 29.103
O 24.079 22.463 30.078
O 25.897 22.51  28.773
C 26.546 21.494 29.655
H 26.274 21.687 30.736
H 26.176 20.502 29.455
H 27.625 21.556 29.537
C 27.633 30.679 30.737
H 27.707 31.198 29.769
H 28.584 30.698 31.268
C 26.54  31.25  31.577
H 26.243 30.618 32.42 
C 25.746 32.292 31.265
C 25.895 33.195 30.033
H 26.064 34.223 30.468
H 26.746 32.969 29.413
H 24.991 33.168 29.459
C 24.587 32.72  32.083
H 24.623 32.007 32.962
H 23.651 32.902 31.549
C 24.894 33.994 32.981
H 25.942 34.154 32.921
H 24.704 33.797 34.069
C 24.052 35.206 32.477
H 23.666 34.885 31.539
H 24.854 35.906 32.468
C 23.025 35.801 33.504
H 23.605 36.177 34.389
C 22.044 34.71  34.125
H 22.619 34.05  34.738
H 21.167 35.224 34.662
H 21.702 34.073 33.335
C 22.272 37.037 32.94 
H 21.643 37.462 33.667
H 21.658 36.815 32.084
C 23.286 38.117 32.49 
H 23.638 37.802 31.521
H 24.051 38.056 33.322
C 22.725 39.581 32.426
H 23.582 40.179 32.755
H 21.885 39.679 33.088
C 22.346 40.094 31.009
H 21.772 39.299 30.617
C 23.633 40.228 30.104
H 24.446 39.548 30.452
H 23.414 40.005 29.086
H 23.987 41.239 30.13 
C 21.395 41.299 31.066
H 21.91  42.185 31.382
H 20.668 41.197 31.849
C 20.692 41.617 29.72 
H 19.643 41.416 29.784
H 21.118 41.01  28.949
C 20.782 43.056 29.212
H 21.156 43.645 30.009
H 19.777 43.331 28.907
C 21.78  43.213 28.003
H 22.672 42.626 28.159
C 22.542 44.629 27.991
H 23.379 44.625 27.303
H 21.781 45.393 27.806
H 22.953 44.763 28.999
C 21.065 42.939 26.684
H 20.211 43.613 26.401
H 21.811 43.108 25.879
H 20.794 41.852 26.685
