137

Mg 37.168 33.116 35.312
C 34.505 31.291 33.921
C 38.637 33.222 32.15 
H 39.091 33.194 31.22 
C 39.953 34.434 36.569
H 40.894 34.837 36.982
C 35.818 32.638 38.431
H 35.463 32.544 39.458
N 36.657 32.232 33.371
C 35.482 31.568 32.994
C 35.505 31.119 31.518
H 35.461 30.042 31.429
C 36.921 31.698 31.065
H 36.761 32.432 30.258
C 37.467 32.431 32.247
C 37.783 30.642 30.485
H 38.848 30.951 30.302
H 37.882 29.869 31.227
H 37.303 30.243 29.615
C 34.317 31.831 30.771
H 34.591 32.871 30.604
H 33.412 31.928 31.343
C 34.069 31.097 29.441
H 34.511 31.619 28.577
H 34.508 30.094 29.374
C 32.651 30.786 29.103
O 32.142 29.65  29.101
O 31.849 31.934 28.868
N 38.913 33.937 34.426
C 39.331 33.89  33.154
C 40.585 34.544 33.033
C 41.037 34.741 34.34 
C 39.935 34.343 35.176
C 41.167 34.911 31.683
H 41.457 35.949 31.671
H 42.005 34.293 31.396
H 40.288 34.898 30.903
C 42.322 35.445 34.818
H 42.255 35.914 35.799
C 43.475 35.535 34.095
H 43.549 35.158 33.012
H 44.444 36.011 34.452
N 37.769 33.519 37.149
C 38.96  34.161 37.505
C 38.96  34.177 38.989
C 37.672 33.829 39.462
C 36.976 33.338 38.344
C 40.187 34.657 39.796
H 40.106 35.766 39.82 
H 40.042 34.244 40.759
H 41.032 34.231 39.176
C 37.202 33.819 40.88 
H 37.06  32.891 41.341
H 37.983 34.238 41.449
C 35.958 34.821 41.133
H 35.402 34.684 42.067
H 36.338 35.814 41.073
H 35.272 34.686 40.366
N 35.534 32.19  36.096
C 35.118 32.082 37.414
C 33.925 31.229 37.462
C 33.624 30.959 36.143
C 34.577 31.557 35.326
C 33.233 30.796 38.668
H 32.227 30.675 38.366
H 33.468 29.863 39.175
H 33.236 31.528 39.467
C 32.684 30.31  35.244
O 31.56  29.702 35.465
C 33.23  30.514 33.754
H 32.418 31.013 33.274
C 33.33  29.098 33.312
O 33.883 28.184 33.936
O 32.959 28.946 31.988
C 33.272 27.745 31.29 
H 32.972 27.696 30.281
H 34.377 27.858 31.288
H 32.985 26.905 31.795
C 30.516 31.649 28.327
H 29.749 31.379 29.046
H 30.607 30.888 27.499
C 30.057 32.957 27.631
H 30.521 33.071 26.695
C 29.035 33.825 27.905
C 28.224 33.897 29.189
H 27.178 33.834 29.012
H 28.546 33.134 29.992
H 28.273 34.863 29.626
C 28.757 34.867 26.873
H 29.577 34.884 26.136
H 28.7   35.817 27.385
C 27.417 34.605 26.133
H 27.191 33.599 26.157
H 27.579 34.825 25.029
C 26.193 35.261 26.819
H 26.394 35.886 27.64 
H 25.54  34.483 27.114
C 25.352 36.213 25.837
H 25.098 35.662 24.968
C 26.227 37.4   25.359
H 26.781 37.85  26.127
H 27.062 37.098 24.704
H 25.643 38.162 24.841
C 24.011 36.749 26.471
H 23.642 37.466 25.732
H 24.362 37.261 27.467
C 23.032 35.654 26.584
H 23.37  34.704 26.252
H 22.128 35.909 25.982
C 22.526 35.474 28.046
H 21.522 35.907 28.018
H 23.067 36.039 28.758
C 22.437 34.013 28.636
H 23.443 33.646 28.677
C 21.547 33.042 27.9  
H 21.427 32.119 28.457
H 20.559 33.505 27.902
H 21.736 32.82  26.849
C 22.007 34.099 30.173
H 21.497 33.131 30.367
H 21.318 34.904 30.324
C 23.22  34.327 31.142
H 22.946 35.116 31.841
H 24.121 34.5   30.55 
C 23.483 33.131 32.088
H 22.986 32.211 31.631
H 22.949 33.241 33.035
C 24.951 32.764 32.479
H 25.421 33.755 32.745
C 25.72  32.233 31.244
H 25.615 32.928 30.438
H 26.722 32.254 31.476
H 25.332 31.3   31.073
C 25.138 31.847 33.744
H 26.181 31.701 33.795
H 24.906 32.427 34.585
H 24.656 30.899 33.71 
