137

Mg 21.65  24.267 38.267
C 20.326 21.159 39.275
C 21.698 23.111 35.052
H 21.844 22.741 34.014
C 22.75  27.274 37.372
H 23.158 28.262 37.204
C 21.526 25.286 41.592
H 21.469 25.556 42.634
N 21.125 22.425 37.313
C 20.601 21.265 37.908
C 20.29  20.159 36.864
H 20.791 19.197 37.12 
C 21.063 20.811 35.636
H 20.407 20.832 34.813
C 21.316 22.201 36.042
C 22.342 20.131 35.212
H 23.198 20.645 35.678
H 22.213 19.04  35.477
H 22.486 20.184 34.144
C 18.746 20.104 36.762
H 18.311 21.085 36.645
H 18.376 19.788 37.7  
C 18.215 19.149 35.601
H 19.035 18.695 35.024
H 17.557 18.421 36.069
C 17.296 19.764 34.562
O 16.803 20.855 34.634
O 17.106 18.903 33.521
N 22.079 25.094 36.497
C 22.107 24.455 35.274
C 22.411 25.4   34.221
C 22.757 26.632 34.926
C 22.496 26.349 36.352
C 22.363 25.064 32.755
H 23.412 24.999 32.361
H 21.848 24.095 32.468
H 21.867 25.884 32.262
C 23.148 27.929 34.395
H 23.224 28.713 35.074
C 23.635 28.172 33.137
H 23.733 27.289 32.445
H 24.008 29.174 32.742
N 22.051 25.997 39.243
C 22.51  27.115 38.758
C 22.65  28.201 39.76 
C 22.463 27.6   40.955
C 22.019 26.226 40.622
C 22.973 29.621 39.532
H 23.872 29.655 38.911
H 22.145 29.99  38.937
H 23.038 30.181 40.467
C 22.491 28.246 42.405
H 22.839 27.433 43.101
H 23.2   29.147 42.423
C 21.146 28.735 42.891
H 21.378 29.214 43.816
H 20.681 29.492 42.25 
H 20.463 27.947 43.006
N 21.034 23.455 40.074
C 21.169 23.914 41.312
C 20.743 22.955 42.336
C 20.449 21.806 41.549
C 20.602 22.167 40.189
C 20.671 23.193 43.833
H 21.346 23.99  44.125
H 19.588 23.347 44.119
H 20.935 22.294 44.324
C 19.955 20.498 41.59 
O 19.452 19.949 42.565
C 20.081 19.949 40.15 
H 19.131 19.36  39.872
C 21.271 19.029 40.071
O 22.374 19.295 39.623
O 20.963 17.91  40.761
C 22.041 16.901 40.57 
H 21.793 16.032 41.187
H 22.181 16.633 39.49 
H 22.891 17.347 40.955
C 16.339 19.618 32.485
H 16.791 20.58  32.223
H 15.419 19.873 32.938
C 16.435 18.681 31.304
H 17.337 18.1   31.325
C 15.459 18.472 30.396
C 14.123 19.193 30.287
H 14.057 19.299 29.221
H 13.397 18.505 30.649
H 14.147 20.129 30.893
C 15.681 17.311 29.423
H 16.674 17.497 29.162
H 15.066 17.463 28.475
C 15.631 15.914 30.056
H 15.171 15.961 31.051
H 16.648 15.61  30.427
C 14.948 14.962 29.16 
H 15.652 14.157 28.986
H 14.681 15.46  28.193
C 13.677 14.229 29.782
H 14.07  13.878 30.815
C 13.095 12.972 28.993
H 12.161 12.63  29.363
H 12.912 13.197 27.991
H 13.771 12.119 28.895
C 12.493 15.133 30.254
H 12.906 15.753 31.043
H 11.761 14.55  30.757
C 11.849 16.055 29.172
H 11.94  15.677 28.12 
H 12.371 17.02  29.242
C 10.318 16.049 29.28 
H 10.016 15.375 30.066
H  9.839 15.661 28.348
C  9.623 17.376 29.597
H  9.923 17.918 28.73 
C 10.087 18.033 30.917
H  9.545 17.625 31.799
H 11.086 17.903 31.107
H  9.904 19.126 30.837
C  8.054 17.141 29.375
H  7.579 16.52  30.114
H  7.928 16.67  28.395
C  7.365 18.523 29.306
H  7.97  19.33  29.717
H  6.615 18.469 30.028
C  6.634 18.885 28.01 
H  5.565 18.824 28.271
H  6.899 18.169 27.198
C  6.858 20.305 27.38 
H  6.66  21.128 28.075
C  5.885 20.565 26.161
H  5.789 19.667 25.497
H  4.881 20.748 26.507
H  6.16  21.448 25.554
C  8.265 20.582 26.756
H  8.227 21.534 26.201
H  8.999 20.637 27.567
H  8.516 19.644 26.101
