137

Mg 23.092 30.826 34.355
C 22.638 28.689 37.106
C 19.657 30.558 33.644
H 18.587 30.57  33.504
C 23.558 32.817 31.656
H 23.74  33.462 30.782
C 26.555 30.713 34.841
H 27.669 30.709 34.879
N 21.385 29.924 35.338
C 21.462 29.118 36.5  
C 20.057 28.804 37.018
H 20.123 27.752 37.381
C 19.236 29.128 35.711
H 18.468 29.8   36.07 
C 20.129 29.916 34.776
C 18.495 27.894 34.971
H 17.949 28.291 34.117
H 19.208 27.202 34.502
H 17.741 27.32  35.585
C 19.673 29.744 38.221
H 19.786 30.699 37.875
H 20.395 29.465 39.089
C 18.301 29.386 38.781
H 17.817 28.638 38.224
H 18.462 29.139 39.818
C 17.268 30.543 38.939
O 16.669 30.909 39.941
O 17.181 31.112 37.729
N 21.825 31.617 32.982
C 20.43  31.418 32.853
C 19.966 32.284 31.882
C 21.037 32.908 31.293
C 22.207 32.357 31.927
C 18.516 32.442 31.506
H 17.9   33.154 32.109
H 18.464 32.782 30.499
H 18.14  31.433 31.631
C 21.09  33.808 30.17 
H 21.748 33.598 29.356
C 20.302 34.863 30.123
H 19.556 34.969 30.922
H 20.217 35.546 29.301
N 24.698 31.558 33.418
C 24.665 32.413 32.336
C 26.077 32.908 32.127
C 26.953 32.226 32.954
C 26.092 31.417 33.78 
C 26.48  33.821 31.06 
H 25.708 34.519 30.802
H 27.348 34.299 31.598
H 26.819 33.222 30.184
C 28.494 32.208 32.842
H 28.914 31.284 33.086
H 28.761 32.458 31.886
C 29.016 33.117 33.882
H 30.062 33.014 33.865
H 28.621 34.146 33.795
H 28.566 32.769 34.775
N 24.334 29.895 35.646
C 25.767 29.958 35.714
C 26.214 29.277 36.925
C 25.037 28.629 37.414
C 23.891 29.13  36.658
C 27.573 29.275 37.539
H 27.856 30.321 37.635
H 27.501 28.83  38.504
H 28.345 28.751 37.013
C 24.496 27.834 38.526
O 25.105 27.335 39.453
C 22.905 27.884 38.357
H 22.612 28.477 39.203
C 22.518 26.415 38.337
O 22.774 25.604 37.469
O 22.017 26.026 39.54 
C 22.142 24.599 40.045
H 21.527 24.323 40.894
H 22.082 23.839 39.251
H 23.097 24.473 40.432
C 15.886 31.888 37.598
H 15.753 32.62  38.378
H 15.014 31.281 37.579
C 15.977 32.398 36.201
H 15.528 31.679 35.579
C 16.424 33.562 35.664
C 17.328 34.556 36.347
H 16.753 35.431 36.53 
H 17.722 34.102 37.237
H 18.237 34.663 35.599
C 16.191 33.894 34.196
H 15.947 33.022 33.606
H 17.12  34.219 33.771
C 15.137 34.983 33.946
H 14.927 35.651 34.715
H 14.259 34.375 33.725
C 15.419 35.676 32.646
H 14.709 35.272 31.881
H 16.431 35.498 32.26 
C 15.141 37.183 32.653
H 14.138 37.461 32.991
C 15.037 37.753 31.225
H 14.863 38.836 31.266
H 15.949 37.434 30.755
H 14.234 37.215 30.782
C 16.121 37.94  33.569
H 16.202 37.437 34.501
H 15.681 38.9   33.782
C 17.604 37.893 33.068
H 17.8   37.172 32.271
H 18.249 37.536 33.9  
C 18.148 39.356 32.691
H 18.825 39.643 33.482
H 17.378 40.097 32.71 
C 18.969 39.45  31.335
H 18.448 39.042 30.522
C 20.396 38.808 31.402
H 21.029 39.027 30.479
H 20.815 39.232 32.256
H 20.426 37.727 31.531
C 19.037 40.977 31.08 
H 19.546 41.142 30.055
H 19.579 41.488 31.857
C 17.699 41.713 30.811
H 17.2   41.912 31.766
H 16.976 41.098 30.254
C 17.992 43.161 30.243
H 17.498 43.352 29.313
H 19.06  43.198 29.94 
C 17.624 44.369 31.228
H 18.057 44.253 32.231
C 16.049 44.479 31.411
H 15.778 45.527 31.689
H 15.451 44.026 30.66 
H 15.954 43.887 32.333
C 17.969 45.763 30.643
H 17.886 46.578 31.4  
H 19.037 45.704 30.537
H 17.516 46.023 29.647
