137

Mg 36.002 35.378 34.648
C 32.725 34.576 34.972
C 36.319 32.66  32.418
H 36.374 31.82  31.738
C 39.148 36.321 33.823
H 40.15  36.684 33.652
C 35.627 37.954 36.851
H 35.415 38.681 37.637
N 34.691 33.861 33.719
C 33.363 33.75  34.051
C 32.753 32.463 33.36 
H 32.438 31.873 34.17 
C 33.968 31.75  32.711
H 33.86  31.565 31.603
C 35.068 32.808 32.938
C 34.137 30.278 33.247
H 33.532 29.534 32.752
H 35.187 29.959 33.077
H 34.123 30.193 34.336
C 31.54  32.727 32.489
H 31.752 32.215 31.535
H 31.449 33.772 32.361
C 30.175 32.188 32.847
H 29.844 31.465 32.023
H 30.198 31.635 33.782
C 29.    33.2   32.983
O 28.854 34.227 32.334
O 28.128 32.888 33.951
N 37.446 34.733 33.22 
C 37.414 33.616 32.461
C 38.562 33.505 31.683
C 39.386 34.585 31.972
C 38.636 35.279 33.051
C 38.686 32.406 30.58 
H 38.811 31.398 31.01 
H 37.932 32.306 29.786
H 39.556 32.607 29.93 
C 40.839 34.86  31.507
H 41.558 35.414 32.174
C 41.227 34.63  30.225
H 40.486 34.266 29.444
H 42.308 34.778 29.916
N 37.228 36.791 35.357
C 38.532 36.996 34.892
C 38.994 38.195 35.607
C 38.015 38.578 36.589
C 36.868 37.736 36.314
C 40.344 38.845 35.43 
H 40.815 38.688 34.448
H 40.382 39.932 35.584
H 40.971 38.449 36.249
C 38.146 39.681 37.577
H 37.593 39.482 38.51 
H 39.176 39.795 37.694
C 37.689 41.09  37.086
H 37.663 41.794 37.853
H 38.256 41.517 36.187
H 36.698 40.846 36.785
N 34.484 36.243 35.631
C 34.455 37.238 36.56 
C 33.191 37.27  37.209
C 32.425 36.307 36.544
C 33.294 35.679 35.639
C 32.68  38.195 38.27 
H 31.83  38.666 37.851
H 32.333 37.749 39.19 
H 33.415 38.925 38.569
C 31.14  35.607 36.567
O 30.132 35.821 37.198
C 31.293 34.416 35.589
H 30.58  34.546 34.759
C 31.15  33.125 36.308
O 32.044 32.572 36.866
O 29.935 32.657 36.177
C 29.716 31.299 36.761
H 28.67  31.271 37.215
H 29.823 30.662 35.958
H 30.405 31.116 37.609
C 27.035 33.824 34.172
H 26.364 33.715 33.413
H 27.278 34.933 34.19 
C 26.272 33.457 35.44 
H 26.795 33.513 36.4  
C 24.96  33.215 35.456
C 24.101 32.94  34.188
H 23.497 32.112 34.375
H 23.493 33.803 33.975
H 24.751 32.59  33.291
C 24.272 32.937 36.718
H 24.858 33.392 37.515
H 24.325 31.905 37.027
C 22.947 33.577 36.974
H 22.934 34.37  36.214
H 23.015 34.208 37.914
C 21.694 32.69  37.106
H 21.242 32.682 38.111
H 22.053 31.63  37.038
C 20.551 32.964 36.044
H 21.129 33.258 35.183
C 19.684 34.094 36.449
H 18.909 34.321 35.713
H 19.29  33.786 37.391
H 20.205 35.055 36.735
C 19.722 31.725 35.644
H 20.308 31.028 35.08 
H 18.868 32.103 35.028
C 18.918 31.041 36.825
H 18.545 31.826 37.537
H 19.423 30.313 37.465
C 17.698 30.185 36.17 
H 17.78  30.319 35.061
H 16.737 30.485 36.601
C 17.914 28.645 36.198
H 17.979 28.222 37.195
C 19.365 28.111 35.693
H 20.024 28.141 36.527
H 19.364 27.141 35.347
H 19.693 28.672 34.823
C 16.814 27.868 35.421
H 16.853 26.773 35.54 
H 16.89  28.179 34.36 
C 15.321 28.178 35.792
H 14.978 29.223 35.566
H 15.119 28.254 36.867
C 14.401 27.103 35.294
H 13.698 26.863 36.037
H 14.98  26.273 34.855
C 13.515 27.454 34.067
H 14.094 28.05  33.261
C 12.342 28.417 34.476
H 11.795 28.849 33.703
H 11.662 28.055 35.29 
H 12.857 29.284 34.971
C 13.165 26.229 33.184
H 12.611 26.557 32.298
H 14.004 25.651 32.905
H 12.527 25.49  33.639
