137

Mg 35.434 30.939 36.185
C 32.139 30.789 35.31 
C 36.076 28.485 33.855
H 36.286 27.591 33.178
C 38.684 31.233 36.973
H 39.783 31.159 37.139
C 34.694 33.691 38.205
H 34.553 34.514 38.975
N 34.201 29.817 34.729
C 32.884 29.872 34.603
C 32.403 28.997 33.429
H 31.606 28.323 33.801
C 33.626 28.147 33.184
H 34.029 28.307 32.196
C 34.714 28.782 33.986
C 33.385 26.602 33.54 
H 33.102 26.102 32.61 
H 34.263 26.106 34.005
H 32.686 26.4   34.312
C 31.991 29.857 32.156
H 32.87  30.147 31.656
H 31.604 30.831 32.449
C 31.066 29.194 31.15 
H 31.519 29.279 30.143
H 30.976 28.166 31.381
C 29.565 29.667 31.053
O 28.876 29.503 30.072
O 29.151 30.287 32.168
N 37.09  30.083 35.471
C 37.151 29.052 34.52 
C 38.528 28.731 34.314
C 39.304 29.5   35.201
C 38.383 30.354 35.97 
C 38.976 27.575 33.435
H 38.955 27.699 32.366
H 39.916 27.215 33.856
H 38.305 26.735 33.695
C 40.819 29.407 35.449
H 41.242 29.744 36.385
C 41.682 29.191 34.42 
H 41.393 28.995 33.353
H 42.766 29.382 34.692
N 36.517 32.154 37.477
C 37.87  32.09  37.672
C 38.295 33.075 38.621
C 37.172 33.732 39.013
C 36.056 33.227 38.224
C 39.787 33.273 39.047
H 39.958 32.533 39.816
H 40.506 33.181 38.22 
H 39.887 34.296 39.431
C 37.11  34.836 40.053
H 36.347 34.518 40.684
H 38.014 34.881 40.631
C 37.015 36.217 39.431
H 36.202 36.284 38.713
H 36.927 37.002 40.189
H 37.955 36.326 38.867
N 33.812 31.989 36.701
C 33.64  33.114 37.489
C 32.239 33.612 37.291
C 31.616 32.642 36.541
C 32.608 31.748 36.174
C 31.616 34.807 38.017
H 32.446 35.14  38.642
H 31.202 35.552 37.352
H 30.883 34.612 38.794
C 30.34  32.12  36.066
O 29.187 32.511 36.151
C 30.661 30.865 35.289
H 30.374 30.932 34.28 
C 29.905 29.895 36.042
O 30.15  29.511 37.162
O 28.814 29.44  35.313
C 28.035 28.359 35.88 
H 27.677 28.624 36.941
H 27.263 28.195 35.152
H 28.706 27.524 36.029
C 27.799 30.823 31.999
H 27.081 30.075 31.492
H 27.863 31.665 31.346
C 27.299 31.411 33.252
H 28.095 31.981 33.815
C 26.088 31.249 33.842
C 24.916 30.782 32.975
H 25.02  29.778 32.567
H 24.058 30.818 33.647
H 24.705 31.575 32.19 
C 25.748 31.779 35.197
H 26.739 31.994 35.703
H 25.251 31.013 35.837
C 24.887 33.098 35.195
H 24.68  33.491 34.251
H 25.447 33.786 35.8  
C 23.529 32.838 35.842
H 23.594 33.021 36.914
H 23.339 31.801 35.653
C 22.288 33.604 35.26 
H 22.235 33.256 34.21 
C 22.406 35.147 35.405
H 22.185 35.462 36.404
H 23.377 35.459 35.124
H 21.604 35.684 34.855
C 20.971 33.182 35.98 
H 20.325 33.729 35.364
H 20.95  33.563 36.979
C 20.67  31.685 35.878
H 20.931 31.183 36.871
H 21.401 31.132 35.333
C 19.276 31.357 35.399
H 19.221 30.346 35.119
H 19.123 31.914 34.495
C 18.121 31.689 36.425
H 17.869 32.724 36.449
C 18.432 31.164 37.922
H 18.73  30.121 37.92 
H 19.319 31.627 38.383
H 17.561 31.472 38.495
C 16.824 30.882 35.96 
H 16.007 31.068 36.648
H 17.112 29.867 36.108
C 16.341 31.189 34.507
H 16.851 32.028 33.977
H 15.209 31.352 34.564
C 16.404 29.878 33.697
H 17.122 29.13  33.964
H 16.612 30.25  32.735
C 15.063 29.148 33.343
H 14.237 29.863 33.137
C 14.639 28.278 34.497
H 13.712 27.711 34.316
H 15.416 27.552 34.586
H 14.72  28.778 35.456
C 15.191 28.235 32.123
H 14.223 27.786 31.894
H 15.501 28.875 31.271
H 16.014 27.597 32.343
