137

Mg 31.299 28.002 33.992
C 29.171 27.157 31.392
C 34.003 27.02  32.022
H 34.87  26.728 31.367
C 33.362 28.964 36.375
H 34.136 29.171 37.1  
C 28.584 29.275 35.728
H 27.778 29.478 36.422
N 31.547 27.203 31.984
C 30.532 26.945 31.113
C 31.04  26.694 29.725
H 30.519 25.742 29.482
C 32.559 26.413 29.976
H 33.241 27.047 29.321
C 32.719 26.901 31.456
C 32.892 24.893 29.688
H 32.272 24.32  30.338
H 32.656 24.639 28.642
H 33.895 24.639 29.902
C 30.907 27.929 28.763
H 31.589 28.688 29.09 
H 29.934 28.387 28.874
C 31.082 27.693 27.239
H 31.917 28.301 26.89 
H 31.432 26.643 27.065
C 29.906 28.016 26.31 
O 29.999 28.454 25.192
O 28.72  27.629 26.782
N 33.284 27.997 34.126
C 34.252 27.52  33.315
C 35.536 27.517 33.9  
C 35.375 28.017 35.164
C 33.951 28.384 35.274
C 36.777 26.995 33.211
H 36.517 25.982 33.054
H 36.887 27.491 32.291
H 37.69  27.099 33.817
C 36.439 28.451 36.158
H 36.313 29.412 36.694
C 37.418 27.564 36.507
H 37.435 26.619 35.953
H 38.228 27.685 37.232
N 31.064 29.028 35.705
C 32.036 29.258 36.59 
C 31.464 30.038 37.726
C 30.096 30.073 37.503
C 29.875 29.435 36.252
C 32.244 30.511 38.977
H 31.855 30.158 39.866
H 33.293 30.237 38.984
H 32.105 31.588 39.048
C 29.129 30.766 38.461
H 28.282 30.166 38.853
H 29.676 31.07  39.351
C 28.518 32.026 37.871
H 27.627 31.789 37.277
H 28.212 32.608 38.708
H 29.232 32.701 37.283
N 29.283 28.243 33.651
C 28.241 28.868 34.398
C 26.976 28.672 33.757
C 27.3   27.992 32.559
C 28.682 27.786 32.532
C 25.648 29.26  34.255
H 24.831 28.826 33.748
H 25.515 29.031 35.289
H 25.749 30.34  34.053
C 26.753 27.456 31.286
O 25.637 27.448 30.858
C 27.969 27.032 30.448
H 28.068 27.645 29.562
C 27.655 25.662 30.032
O 27.984 24.675 30.718
O 26.919 25.569 28.922
C 26.484 24.256 28.462
H 27.375 23.598 28.655
H 25.645 23.877 29.014
H 26.199 24.278 27.447
C 27.615 27.972 25.894
H 27.404 27.286 25.065
H 27.642 29.049 25.522
C 26.429 28.005 26.744
H 26.506 28.667 27.597
C 25.291 27.222 26.824
C 25.049 26.245 25.743
H 24.875 26.666 24.741
H 25.925 25.673 25.721
H 24.229 25.557 26.017
C 24.306 27.419 27.915
H 24.694 28.125 28.618
H 24.222 26.468 28.41 
C 22.973 27.93  27.62 
H 22.702 27.395 26.679
H 23.029 29.027 27.452
C 21.966 27.747 28.755
H 21.634 28.763 29.169
H 22.353 27.238 29.624
C 20.771 26.866 28.309
H 20.667 27.102 27.188
C 19.407 27.231 28.881
H 19.39  27.129 29.95 
H 19.19  28.309 28.646
H 18.599 26.708 28.39 
C 21.006 25.34  28.266
H 21.774 25.273 27.519
H 20.121 24.778 27.952
C 21.631 24.698 29.5  
H 21.25  25.051 30.433
H 22.669 25.038 29.573
C 21.651 23.19  29.361
H 22.688 22.778 29.419
H 21.247 22.761 28.449
C 20.996 22.443 30.63 
H 21.391 22.798 31.564
C 21.204 20.944 30.46 
H 20.637 20.27  31.105
H 20.793 20.616 29.457
H 22.309 20.823 30.625
C 19.47  22.689 30.794
H 18.794 22.286 29.996
H 19.391 23.78  30.787
C 18.919 22.173 32.115
H 18.184 22.888 32.517
H 19.731 22.026 32.884
C 17.994 20.853 31.998
H 18.333 20.059 32.668
H 18.07  20.57  30.962
C 16.544 21.072 32.589
H 16.542 21.646 33.52 
C 15.855 19.743 32.856
H 15.717 19.173 31.937
H 16.531 19.251 33.536
H 14.851 19.878 33.321
C 15.618 21.836 31.592
H 16.017 22.745 31.313
H 15.172 21.201 30.778
H 14.756 21.997 32.228
