137

Mg 31.993 30.898 34.54 
C 30.734 28.374 32.512
C 34.203 31.675 32.055
H 34.976 32.013 31.414
C 33.107 33.364 36.502
H 33.346 34.272 37.021
C 29.32  30.227 36.768
H 28.483 30.075 37.438
N 32.47  30.038 32.568
C 31.683 29.183 31.899
C 32.208 28.969 30.434
H 32.401 27.894 30.409
C 33.544 29.821 30.452
H 33.463 30.565 29.633
C 33.38  30.618 31.752
C 34.921 29.139 30.28 
H 35.114 28.367 31.011
H 35.105 28.771 29.29 
H 35.752 29.9   30.464
C 31.221 29.428 29.312
H 31.331 30.534 29.434
H 30.159 29.235 29.492
C 31.509 28.885 27.867
H 31.917 29.678 27.203
H 32.309 28.212 27.903
C 30.348 28.226 27.121
O 29.962 28.446 26.   
O 29.778 27.281 27.938
N 33.488 32.209 34.357
C 34.258 32.437 33.238
C 35.181 33.582 33.527
C 34.89  34.038 34.812
C 33.781 33.209 35.294
C 36.343 34.051 32.619
H 36.058 34.997 32.117
H 37.265 34.2   33.189
H 36.635 33.221 31.969
C 35.628 35.086 35.549
H 35.75  34.938 36.649
C 36.18  36.238 34.967
H 35.934 36.504 33.892
H 36.758 36.945 35.511
N 31.437 31.577 36.393
C 32.024 32.607 37.037
C 31.407 32.812 38.307
C 30.279 31.993 38.408
C 30.3   31.193 37.139
C 31.906 33.817 39.338
H 31.376 33.584 40.279
H 33.029 33.593 39.439
H 31.693 34.859 39.131
C 29.287 31.915 39.505
H 28.969 30.911 39.574
H 29.66 32.39 40.45
C 28.018 32.725 39.209
H 27.308 32.55  40.048
H 28.49  33.73  39.087
H 27.553 32.427 38.266
N 30.43  29.514 34.723
C 29.415 29.362 35.712
C 28.646 28.167 35.394
C 29.094 27.754 34.187
C 30.17  28.579 33.803
C 27.575 27.523 36.346
H 26.599 28.074 36.164
H 27.338 26.402 36.196
H 27.911 27.546 37.372
C 29.009 26.722 33.171
O 28.3   25.782 33.073
C 30.062 27.123 32.006
H 29.46  27.23  31.064
C 30.866 25.911 31.822
O 31.393 25.409 32.811
O 30.911 25.348 30.581
C 31.685 24.109 30.466
H 31.152 23.373 31.128
H 31.561 23.707 29.438
H 32.684 24.264 30.706
C 29.101 26.272 27.211
H 29.799 25.523 26.864
H 28.506 26.688 26.392
C 28.034 25.771 28.193
H 27.474 26.575 28.77 
C 27.539 24.54  28.55 
C 28.041 23.209 27.919
H 28.637 22.791 28.706
H 27.243 22.521 27.584
H 28.721 23.514 27.064
C 26.496 24.409 29.616
H 26.172 25.425 29.925
H 26.806 23.834 30.489
C 25.214 23.702 29.174
H 25.164 22.644 29.415
H 25.099 23.898 28.094
C 23.988 24.346 29.871
H 24.169 24.914 30.719
H 23.353 23.535 30.284
C 23.215 25.228 28.871
H 23.11  24.711 27.954
C 23.938 26.626 28.608
H 24.752 26.514 27.859
H 23.202 27.34  28.321
H 24.397 26.829 29.597
C 21.755 25.415 29.384
H 21.226 24.419 29.433
H 21.242 25.909 28.585
C 21.573 26.213 30.742
H 21.381 27.296 30.664
H 22.457 26.145 31.283
C 20.424 25.554 31.568
H 20.133 24.585 31.232
H 19.465 26.189 31.566
C 20.715 25.375 33.074
H 21.319 26.176 33.504
C 21.477 24.038 33.275
H 21.999 24.009 34.179
H 20.875 23.16  33.051
H 22.329 24.05  32.584
C 19.385 25.394 33.901
H 18.783 24.707 33.524
H 18.932 26.361 33.751
C 19.649 25.337 35.417
H 19.201 26.262 35.772
H 20.724 25.323 35.71 
C 18.907 24.272 36.186
H 19.624 23.498 36.228
H 18.189 23.891 35.439
C 18.304 24.656 37.595
H 17.736 25.589 37.525
C 19.526 24.921 38.551
H 19.182 25.098 39.571
H 20.137 24.012 38.379
H 19.929 25.789 38.137
C 17.337 23.667 38.069
H 17.943 22.742 38.147
H 16.875 24.004 39.002
H 16.573 23.638 37.305
