137

Mg 27.873 25.857 43.765
C 24.618 25.653 43.119
C 28.436 24.888 40.394
H 28.594 24.694 39.357
C 31.217 25.536 44.3  
H 32.284 25.329 44.479
C 27.371 26.52  47.081
H 27.218 26.823 48.111
N 26.68  25.319 41.978
C 25.334 25.393 41.963
C 24.706 25.148 40.557
H 24.045 24.319 40.679
C 25.99  24.516 39.778
H 26.198 24.934 38.808
C 27.095 24.956 40.727
C 25.985 22.974 39.55 
H 26.901 22.601 39.038
H 25.942 22.476 40.554
H 25.112 22.817 39.037
C 24.016 26.433 39.916
H 24.727 27.078 39.355
H 23.799 27.05  40.778
C 22.726 26.208 39.089
H 22.378 25.241 39.282
H 21.986 26.875 39.508
C 22.764 26.532 37.645
O 23.747 26.786 36.904
O 21.495 26.473 37.11 
N 29.552 25.41  42.534
C 29.55  25.203 41.211
C 30.874 25.085 40.735
C 31.7   25.104 41.805
C 30.823 25.424 42.933
C 31.11  24.96  39.217
H 31.181 23.908 38.95 
H 30.347 25.492 38.58 
H 32.108 25.345 38.941
C 33.217 24.851 41.944
H 33.607 24.489 42.9  
C 34.19  25.062 41.023
H 34.02  25.461 39.971
H 35.24  24.846 41.297
N 29.107 26.072 45.417
C 30.479 25.877 45.408
C 31.003 25.937 46.73 
C 29.901 26.348 47.532
C 28.677 26.287 46.681
C 32.477 25.709 47.119
H 32.648 25.733 48.182
H 32.642 24.722 46.684
H 33.177 26.43  46.571
C 29.972 26.558 48.989
H 29.042 26.312 49.48 
H 30.614 25.898 49.338
C 30.369 28.014 49.449
H 30.001 28.051 50.458
H 31.431 28.221 49.34 
H 29.899 28.829 48.87 
N 26.295 25.979 44.928
C 26.21  26.325 46.269
C 24.779 26.398 46.608
C 24.118 26.132 45.349
C 25.058 25.931 44.42 
C 24.205 26.653 47.969
H 24.18  25.734 48.581
H 24.816 27.433 48.404
H 23.155 27.009 47.824
C 22.874 26.103 44.706
O 21.802 26.257 45.102
C 23.074 25.817 43.21 
H 22.743 26.726 42.726
C 22.276 24.651 42.788
O 22.641 23.484 42.882
O 21.128 25.089 42.242
C 20.123 23.958 41.917
H 20.676 22.994 41.919
H 19.507 23.9   42.766
H 19.631 23.999 40.96 
C 21.321 26.776 35.664
H 21.975 26.198 35.043
H 21.398 27.882 35.501
C 19.962 26.251 35.278
H 19.888 25.2   35.112
C 18.857 26.955 35.003
C 18.674 28.443 35.048
H 17.83  28.667 35.665
H 19.444 28.977 35.584
H 18.576 28.89  34.038
C 17.705 26.156 34.295
H 18.132 25.253 33.859
H 17.387 26.863 33.563
C 16.469 25.844 35.141
H 15.844 26.709 35.01 
H 16.658 25.86  36.23 
C 15.562 24.756 34.48 
H 15.391 24.017 35.269
H 16.132 24.26  33.72 
C 14.171 25.204 33.965
H 13.562 25.69  34.688
C 13.42  23.884 33.608
H 12.547 24.089 32.903
H 14.09  23.178 33.134
H 12.996 23.452 34.551
C 14.203 26.168 32.753
H 14.709 27.092 32.991
H 13.19  26.489 32.6  
C 14.931 25.568 31.496
H 15.133 24.501 31.584
H 15.86  26.078 31.311
C 14.083 25.624 30.207
H 14.629 26.353 29.588
H 13.173 26.051 30.581
C 13.897 24.261 29.404
H 13.479 23.525 30.144
C 15.222 23.736 28.991
H 15.652 24.375 28.196
H 15.974 23.462 29.775
H 15.138 22.793 28.43 
C 12.874 24.436 28.26 
H 13.075 25.22  27.573
H 11.975 24.651 28.724
C 12.537 23.136 27.504
H 11.685 22.499 27.88 
H 13.47  22.524 27.486
C 12.232 23.466 25.985
H 13.184 23.568 25.46 
H 11.834 24.456 25.91 
C 11.288 22.448 25.231
H 10.442 22.298 25.852
C 11.987 21.099 25.029
H 12.445 20.819 25.971
H 11.325 20.358 24.663
H 12.782 21.245 24.285
C 10.962 23.107 23.813
H 10.498 22.381 23.191
H 10.274 23.928 23.89 
H 11.857 23.284 23.208
