137

Mg 21.131 18.633 26.32 
C 21.581 17.679 23.059
C 23.86  20.649 26.072
H 24.783 21.292 25.948
C 20.915 19.233 29.674
H 20.777 19.654 30.722
C 18.314 16.665 26.437
H 17.452 16.038 26.621
N 22.559 19.164 24.681
C 22.555 18.63  23.479
C 23.744 19.034 22.61 
H 24.371 18.218 22.403
C 24.453 20.028 23.549
H 24.349 21.022 23.108
C 23.574 20.008 24.842
C 25.963 19.858 23.803
H 26.182 18.915 24.29 
H 26.523 20.03  22.88 
H 26.156 20.626 24.521
C 23.326 19.604 21.245
H 22.528 20.289 21.396
H 23.081 18.851 20.532
C 24.443 20.342 20.492
H 25.474 20.143 20.815
H 24.432 19.878 19.565
C 24.205 21.826 20.074
O 24.259 22.125 18.886
O 24.104 22.634 21.129
N 22.278 19.694 27.723
C 23.385 20.463 27.369
C 23.932 21.057 28.583
C 23.052 20.658 29.674
C 22.001 19.832 29.1  
C 25.277 21.741 28.627
H 25.806 21.356 29.49 
H 25.898 21.45  27.756
H 25.206 22.829 28.696
C 23.045 20.894 31.094
H 22.527 20.251 31.741
C 23.707 21.905 31.722
H 24.459 22.499 31.138
H 23.723 21.925 32.815
N 19.807 18.1   27.754
C 19.928 18.431 29.123
C 18.696 18.016 29.789
C 17.931 17.286 28.863
C 18.679 17.345 27.623
C 18.286 18.211 31.217
H 18.81  19.076 31.645
H 17.259 18.415 31.374
H 18.577 17.332 31.792
C 16.629 16.691 29.084
H 16.611 15.659 28.611
H 16.482 16.655 30.162
C 15.539 17.575 28.475
H 14.588 17.092 28.386
H 15.326 18.375 29.097
H 15.751 17.943 27.496
N 20.153 17.446 25.09 
C 19.026 16.683 25.232
C 18.797 15.808 24.096
C 19.794 16.211 23.21 
C 20.572 17.164 23.877
C 17.687 14.774 23.859
H 16.858 14.953 24.531
H 17.248 15.035 22.853
H 17.94  13.69  23.696
C 20.296 16.015 21.884
O 19.776 15.379 20.978
C 21.435 17.007 21.678
H 21.062 17.747 21.059
C 22.511 16.162 21.089
O 23.39  15.567 21.726
O 22.594 16.18  19.726
C 23.594 15.251 19.147
H 24.605 15.707 19.337
H 23.563 14.313 19.646
H 23.523 14.988 18.072
C 24.049 24.062 20.794
H 23.296 24.41  20.02 
H 25.004 24.405 20.449
C 23.875 24.639 22.153
H 24.696 24.47  22.896
C 22.803 25.238 22.625
C 21.445 25.399 21.864
H 20.627 25.045 22.517
H 21.307 26.439 21.534
H 21.42  24.677 21.057
C 22.847 25.738 24.045
H 23.564 25.098 24.581
H 21.861 25.556 24.408
C 23.15  27.201 24.148
H 22.171 27.669 24.184
H 23.745 27.595 23.353
C 23.593 27.607 25.566
H 23.81  26.708 26.154
H 22.72  28.062 26.063
C 24.793 28.57  25.637
H 24.513 29.384 24.94 
C 26.1   27.865 25.067
H 26.035 26.831 25.544
H 26.136 27.944 23.942
H 26.98  28.328 25.473
C 25.083 29.135 27.092
H 25.99  29.636 26.998
H 25.356 28.251 27.727
C 24.111 30.078 27.793
H 23.149 30.017 27.334
H 24.48  31.056 27.525
C 24.079 29.805 29.297
H 23.894 30.778 29.821
H 25.128 29.537 29.599
C 23.143 28.634 29.712
H 23.392 27.789 29.066
C 21.642 29.024 29.634
H 21.099 28.092 29.536
H 21.331 29.534 30.566
H 21.446 29.764 28.822
C 23.543 28.073 31.103
H 23.518 28.845 31.868
H 24.583 27.681 31.18 
C 22.76  26.889 31.696
H 23.467 26.227 32.139
H 22.14  26.288 31.018
C 21.789 27.401 32.786
H 20.775 27.052 32.765
H 21.707 28.491 32.841
C 22.193 26.953 34.267
H 22.386 25.829 34.204
C 21.124 27.158 35.385
H 21.547 26.779 36.27 
H 20.872 28.217 35.551
H 20.199 26.674 35.15 
C 23.593 27.469 34.771
H 23.802 26.95  35.704
H 24.414 27.335 33.971
H 23.512 28.545 35.067
