137

Mg 23.647 32.218 30.465
C 22.687 28.984 29.836
C 20.44  33.005 31.547
H 19.433 33.188 32.012
C 24.646 35.451 31.181
H 24.832 36.437 31.4  
C 26.764 31.475 29.304
H 27.71  31.3   28.833
N 21.848 31.116 30.579
C 21.657 29.84  30.251
C 20.204 29.432 30.555
H 19.808 28.909 29.681
C 19.473 30.752 30.835
H 18.795 30.64  31.621
C 20.637 31.704 30.993
C 18.672 31.213 29.589
H 18.191 32.148 29.841
H 19.393 31.324 28.782
H 17.85  30.439 29.268
C 20.177 28.517 31.82 
H 20.099 29.054 32.678
H 20.979 27.864 31.675
C 18.844 27.723 31.94 
H 18.072 28.193 31.267
H 18.961 26.663 31.64 
C 18.125 27.655 33.288
O 18.139 26.684 34.097
O 17.495 28.86  33.537
N 22.699 33.966 31.18 
C 21.407 34.059 31.648
C 21.187 35.437 32.232
C 22.342 36.126 32.047
C 23.331 35.135 31.501
C 19.822 35.804 32.938
H 19.84  36.869 33.231
H 19.029 35.616 32.236
H 19.759 35.323 33.956
C 22.661 37.584 32.308
H 23.585 37.762 32.888
C 21.837 38.594 31.97 
H 20.928 38.362 31.4  
H 22.094 39.632 32.277
N 25.373 33.271 30.258
C 25.626 34.569 30.709
C 27.016 34.915 30.408
C 27.665 33.801 29.845
C 26.566 32.785 29.788
C 27.595 36.324 30.614
H 26.96  37.104 30.223
H 27.595 36.506 31.674
H 28.566 36.447 30.136
C 29.081 33.739 29.41 
H 29.033 33.601 28.301
H 29.578 34.642 29.604
C 29.909 32.539 29.915
H 29.787 32.284 30.942
H 29.714 31.652 29.307
H 30.926 32.714 29.666
N 24.628 30.543 29.889
C 25.901 30.371 29.278
C 26.117 28.99  28.826
C 24.816 28.397 29.052
C 24.003 29.333 29.721
C 27.288 28.393 28.246
H 27.232 27.3   28.308
H 27.518 28.53  27.207
H 28.176 28.778 28.761
C 24.1   27.137 28.89 
O 24.426 26.065 28.436
C 22.648 27.52  29.342
H 22.428 26.844 30.085
C 21.843 27.285 28.064
O 22.126 27.687 26.92 
O 20.663 26.638 28.42 
C 19.692 26.714 27.427
H 19.982 26.213 26.544
H 18.752 26.295 27.682
H 19.545 27.79  27.155
C 16.676 28.975 34.731
H 17.174 29.208 35.688
H 16.11  28.015 34.803
C 15.778 30.167 34.594
H 14.742 29.841 34.681
C 16.099 31.413 34.27 
C 17.491 31.938 34.005
H 17.562 32.108 32.946
H 17.591 32.916 34.42 
H 18.274 31.311 34.477
C 14.993 32.404 33.999
H 14.055 31.879 33.838
H 15.211 32.964 33.124
C 14.655 33.316 35.196
H 15.523 33.355 35.829
H 13.826 32.933 35.759
C 14.094 34.713 34.785
H 13.197 34.929 35.362
H 13.725 34.591 33.81 
C 15.095 35.934 34.889
H 15.584 35.895 35.808
C 14.384 37.298 34.854
H 15.204 37.965 34.992
H 13.979 37.512 33.913
H 13.707 37.445 35.697
C 16.367 35.913 33.959
H 16.782 34.918 34.121
H 17.003 36.653 34.482
C 16.125 36.309 32.475
H 15.057 36.211 32.287
H 16.549 35.462 31.833
C 16.669 37.624 31.933
H 17.498 37.512 31.278
H 17.008 38.152 32.839
C 15.586 38.494 31.18 
H 14.785 38.643 31.923
C 15.098 37.713 29.912
H 15.938 37.391 29.29 
H 14.58  36.787 30.252
H 14.372 38.298 29.312
C 16.276 39.914 30.885
H 15.687 40.334 30.056
H 17.259 39.717 30.494
C 16.366 40.993 32.007
H 15.952 40.49  32.877
H 15.923 41.914 31.699
C 17.784 41.165 32.541
H 18.244 40.118 32.514
H 17.846 41.222 33.625
C 18.651 42.345 31.973
H 18.012 43.196 31.945
C 19.19  42.086 30.505
H 20.047 41.413 30.515
H 18.372 41.657 29.865
H 19.511 43.039 30.08 
C 19.932 42.76  32.808
H 20.383 43.6   32.342
H 19.78  42.907 33.851
H 20.629 41.9   32.773
