137

Mg 20.534 17.874 26.531
C 20.786 17.869 23.079
C 23.904 18.478 26.659
H 24.969 18.755 26.732
C 20.449 17.607 29.912
H 20.366 17.6   30.993
C 17.274 17.042 26.384
H 16.213 16.752 26.323
N 22.232 18.178 24.98 
C 22.08  18.153 23.674
C 23.357 18.539 22.934
H 23.619 17.711 22.223
C 24.357 18.606 24.141
H 24.825 19.564 24.221
C 23.47  18.452 25.377
C 25.43  17.441 24.09 
H 24.791 16.592 23.828
H 26.213 17.636 23.38 
H 25.884 17.327 25.033
C 23.227 19.803 22.107
H 22.665 20.574 22.718
H 22.565 19.596 21.303
C 24.475 20.409 21.453
H 25.283 19.657 21.515
H 24.23  20.708 20.488
C 24.994 21.66  22.079
O 26.104 21.859 22.586
O 23.911 22.581 22.098
N 21.998 17.958 28.101
C 23.34  18.213 27.931
C 23.978 18.301 29.259
C 22.962 18.21  30.242
C 21.757 17.89  29.47 
C 25.495 18.516 29.552
H 26.008 17.736 28.994
H 25.679 19.504 29.093
H 25.826 18.353 30.538
C 23.13  18.235 31.755
H 22.561 17.535 32.326
C 23.983 19.083 32.436
H 24.795 19.714 32.01 
H 23.976 19.077 33.539
N 19.087 17.471 27.927
C 19.277 17.398 29.258
C 18.015 16.884 29.925
C 17.064 16.759 28.923
C 17.738 17.088 27.706
C 17.825 16.594 31.398
H 16.873 16.986 31.73 
H 17.776 15.458 31.602
H 18.64  17.024 31.975
C 15.729 16.189 28.981
H 15.496 15.53  28.108
H 15.702 15.609 29.918
C 14.599 17.221 28.978
H 14.798 17.904 29.833
H 14.661 17.781 28.01 
H 13.714 16.669 29.056
N 19.233 17.503 25.089
C 17.922 17.17  25.105
C 17.438 16.989 23.734
C 18.501 17.21  22.952
C 19.592 17.556 23.822
C 16.084 16.534 23.31 
H 15.353 17.29  23.09 
H 16.249 16.004 22.347
H 15.68  15.696 23.949
C 18.959 17.26  21.573
O 18.309 17.041 20.586
C 20.427 17.706 21.568
H 20.433 18.629 20.97 
C 21.012 16.504 20.968
O 21.329 15.46  21.504
O 21.272 16.85  19.632
C 22.059 15.853 18.899
H 21.52  14.952 18.679
H 22.285 16.199 17.924
H 22.965 15.669 19.517
C 24.251 23.855 22.687
H 24.904 24.46  22.143
H 24.752 23.712 23.693
C 22.928 24.508 23.089
H 22.353 23.898 23.761
C 22.377 25.673 22.684
C 22.899 26.512 21.556
H 22.084 27.082 21.022
H 23.457 27.304 22.054
H 23.612 26.112 20.856
C 21.045 26.067 23.208
H 20.694 25.402 23.969
H 20.296 25.837 22.37 
C 20.969 27.486 23.687
H 20.067 27.903 23.217
H 21.751 28.159 23.127
C 20.989 27.55  25.242
H 21.3   26.65  25.723
H 19.936 27.739 25.402
C 21.871 28.693 25.878
H 21.577 29.669 25.558
C 23.325 28.537 25.407
H 23.913 29.419 25.587
H 23.748 27.672 25.898
H 23.602 28.433 24.312
C 21.85  28.565 27.435
H 22.491 29.318 27.857
H 22.213 27.605 27.77 
C 20.473 28.797 28.011
H 19.851 27.921 27.99 
H 19.969 29.572 27.453
C 20.521 29.322 29.424
H 20.156 30.34  29.424
H 21.474 29.345 29.794
C 19.567 28.577 30.407
H 19.963 27.587 30.453
C 18.071 28.574 30.066
H 17.524 27.836 30.692
H 17.694 29.541 30.163
H 17.839 28.264 29.029
C 19.793 29.174 31.891
H 19.686 30.304 31.911
H 20.828 28.974 32.181
C 19.009 28.737 33.074
H 19.65  28.454 33.852
H 18.384 27.906 32.733
C 17.993 29.758 33.629
H 17.037 29.258 33.606
H 17.676 30.544 32.956
C 18.103 30.309 35.124
H 18.264 29.403 35.708
C 16.845 30.92  35.742
H 16.176 30.113 35.825
H 16.974 31.345 36.728
H 16.338 31.602 34.967
C 19.319 31.17  35.316
H 19.39  31.596 36.283
H 20.219 30.662 35.013
H 19.215 32.051 34.727
