137

Mg 34.106 36.999 35.384
C 31.175 35.68  34.246
C 35.764 34.158 34.221
H 36.339 33.283 33.986
C 36.857 37.914 37.189
H 37.777 38.124 37.671
C 32.374 39.546 36.926
H 31.793 40.375 37.293
N 33.57  35.193 34.15 
C 32.305 34.904 33.809
C 32.16  33.674 32.836
H 31.46  32.956 33.221
C 33.622 33.079 33.045
H 34.013 32.904 32.047
C 34.418 34.152 33.863
C 33.602 31.699 33.638
H 33.115 31.803 34.625
H 33.043 30.9   33.089
H 34.619 31.327 33.635
C 31.71  34.093 31.415
H 32.298 35.002 31.093
H 30.65  34.387 31.397
C 31.923 32.988 30.363
H 32.647 33.437 29.633
H 32.493 32.123 30.698
C 30.656 32.43  29.623
O 30.551 32.289 28.408
O 29.715 31.996 30.54 
N 36.038 36.244 35.62 
C 36.464 35.074 35.038
C 37.88  34.903 35.449
C 38.246 35.949 36.275
C 37.    36.768 36.361
C 38.796 33.836 34.978
H 39.781 34.286 34.956
H 38.723 32.912 35.573
H 38.527 33.621 33.93 
C 39.589 36.269 36.826
H 39.819 37.36  37.065
C 40.567 35.41  37.239
H 40.341 34.342 37.292
H 41.577 35.711 37.629
N 34.516 38.513 36.88 
C 35.787 38.724 37.384
C 35.841 40.035 38.112
C 34.559 40.586 37.945
C 33.714 39.549 37.283
C 37.095 40.62  38.793
H 37.951 40.279 38.278
H 37.133 41.698 38.761
H 37.104 40.165 39.815
C 34.062 41.834 38.595
H 33.219 41.563 39.307
H 34.866 42.261 39.23 
C 33.571 42.893 37.56 
H 33.247 43.787 38.136
H 34.53  43.142 36.968
H 32.785 42.425 36.946
N 32.202 37.524 35.545
C 31.634 38.608 36.196
C 30.155 38.557 36.107
C 29.998 37.391 35.366
C 31.241 36.83  35.044
C 29.103 39.438 36.656
H 28.799 40.024 35.769
H 28.243 38.858 37.116
H 29.559 40.158 37.336
C 28.981 36.54  34.766
O 27.75  36.695 34.634
C 29.74  35.391 34.064
H 29.393 35.399 33.074
C 29.476 34.164 34.863
O 29.632 34.022 36.072
O 28.932 33.229 34.002
C 28.631 31.981 34.695
H 28.256 31.223 34.008
H 29.489 31.595 35.236
H 27.891 32.158 35.427
C 28.636 31.207 29.928
H 29.044 30.213 29.711
H 28.315 31.728 29.008
C 27.513 31.092 30.946
H 27.122 32.033 31.324
C 26.915 29.977 31.494
C 27.183 28.506 31.243
H 27.472 27.874 32.085
H 26.186 28.128 30.852
H 28.13  28.461 30.637
C 25.688 30.192 32.378
H 25.854 30.966 33.083
H 25.48  29.206 32.881
C 24.441 30.623 31.505
H 24.598 30.644 30.384
H 24.421 31.659 31.769
C 23.177 29.888 31.855
H 22.42  30.398 32.423
H 23.444 29.012 32.465
C 22.468 29.255 30.609
H 23.2   28.738 29.948
C 21.665 30.243 29.633
H 21.285 29.619 28.809
H 20.843 30.688 30.186
H 22.343 30.973 29.228
C 21.579 28.067 30.982
H 22.219 27.214 31.307
H 21.092 27.588 30.13 
C 20.378 28.158 32.041
H 19.57  27.477 31.824
H 19.999 29.135 32.163
C 20.741 27.613 33.445
H 21.748 27.636 33.782
H 20.418 26.595 33.429
C 19.963 28.247 34.618
H 19.053 28.573 34.142
C 20.579 29.611 35.208
H 19.736 30.31  35.388
H 21.124 29.31  36.098
H 21.305 29.942 34.525
C 19.543 27.325 35.843
H 18.954 27.919 36.588
H 20.44  27.115 36.448
C 18.964 25.943 35.528
H 19.768 25.223 35.682
H 18.693 25.778 34.489
C 17.788 25.532 36.448
H 16.827 25.559 35.9  
H 17.653 26.232 37.26 
C 17.923 24.087 36.976
H 18.86  23.874 37.399
C 17.709 23.1   35.842
H 18.004 22.188 36.309
H 16.583 23.16  35.585
H 18.306 23.371 34.935
C 16.994 23.832 38.095
H 15.901 24.069 37.876
H 17.006 22.771 38.228
H 17.285 24.216 39.003
