137

Mg 23.208 31.133 32.038
C 22.493 28.488 34.187
C 19.911 31.418 31.31 
H 18.891 31.464 31.013
C 23.913 33.738 30.095
H 24.213 34.62  29.445
C 26.59  30.283 32.299
H 27.62  30.02  32.436
N 21.409 30.059 32.63 
C 21.309 29.055 33.58 
C 19.799 28.596 33.824
H 19.689 27.543 33.688
C 19.03  29.405 32.696
H 18.253 29.925 33.267
C 20.186 30.348 32.175
C 18.355 28.549 31.644
H 17.939 29.165 30.855
H 19.118 27.95  31.177
H 17.572 27.94  32.113
C 19.399 28.873 35.286
H 19.073 29.894 35.353
H 20.117 28.676 36.011
C 18.182 28.067 35.775
H 17.921 27.231 35.137
H 18.392 27.634 36.785
C 16.773 28.688 35.784
O 16.116 29.004 36.751
O 16.267 28.711 34.498
N 22.108 32.464 30.923
C 20.774 32.427 30.771
C 20.285 33.524 29.848
C 21.44  34.158 29.439
C 22.59 33.52 30.15
C 18.851 33.853 29.419
H 18.667 34.929 29.496
H 18.799 33.512 28.341
H 18.08  33.254 29.98 
C 21.471 35.332 28.551
H 22.141 36.141 28.805
C 20.832 35.445 27.362
H 20.298 34.637 26.833
H 21.043 36.303 26.717
N 24.961 31.865 31.351
C 24.975 32.906 30.519
C 26.389 33.19  30.173
C 27.121 32.227 30.856
C 26.251 31.397 31.557
C 26.844 34.303 29.321
H 26.118 34.384 28.468
H 26.766 35.225 29.843
H 27.869 34.024 28.966
C 28.676 32.155 30.857
H 28.965 31.172 30.516
H 29.062 32.915 30.16 
C 29.32  32.443 32.285
H 28.576 32.253 33.082
H 30.148 31.74  32.473
H 29.736 33.419 32.507
N 24.314 29.642 32.966
C 25.71  29.457 33.02 
C 26.076 28.277 33.872
C 24.821 27.872 34.354
C 23.809 28.745 33.796
C 27.476 27.745 34.138
H 27.923 27.484 33.206
H 28.069 28.568 34.622
H 27.359 26.908 34.782
C 24.156 26.905 35.219
O 24.535 25.926 35.837
C 22.601 27.318 35.187
H 22.186 27.588 36.132
C 21.934 25.986 34.776
O 22.03  25.479 33.681
O 21.082 25.518 35.79 
C 20.06  24.496 35.364
H 20.064 23.812 36.141
H 19.171 25.092 35.308
H 20.228 24.119 34.313
C 14.986 29.419 34.369
H 14.477 29.969 35.189
H 14.094 28.789 33.994
C 15.269 30.448 33.273
H 14.836 30.239 32.302
C 15.942 31.602 33.411
C 16.592 32.013 34.746
H 16.322 31.342 35.506
H 17.712 31.823 34.67 
H 16.523 33.039 35.069
C 16.186 32.582 32.272
H 15.982 32.05  31.282
H 17.268 32.859 32.312
C 15.237 33.833 32.319
H 15.058 34.108 33.312
H 14.315 33.506 31.886
C 15.79  34.973 31.426
H 15.053 34.999 30.579
H 16.628 34.572 30.89 
C 15.926 36.355 32.095
H 14.962 36.467 32.625
C 15.982 37.432 30.938
H 16.595 38.323 31.376
H 16.52  37.025 30.14 
H 14.934 37.75  30.77 
C 17.136 36.303 33.046
H 17.268 35.455 33.712
H 17.131 37.249 33.626
C 18.525 36.293 32.333
H 18.327 36.313 31.338
H 19.061 35.376 32.553
C 19.396 37.532 32.636
H 20.164 37.299 33.363
H 18.806 38.304 33.116
C 19.961 38.345 31.453
H 19.257 38.26  30.571
C 21.282 37.674 30.977
H 21.602 37.932 29.989
H 22.01  38.063 31.58 
H 21.17  36.573 31.076
C 20.226 39.851 31.71 
H 20.733 40.213 30.886
H 20.846 39.881 32.636
C 18.963 40.706 31.867
H 18.72  41.042 32.907
H 18.147 40.181 31.558
C 19.004 41.953 30.927
H 18.923 41.7   29.916
H 19.916 42.478 31.046
C 18.023 43.027 31.334
H 18.287 43.302 32.381
C 16.494 42.571 31.243
H 15.836 43.233 31.713
H 16.137 42.381 30.25 
H 16.405 41.691 31.877
C 18.108 44.291 30.408
H 17.486 45.099 30.877
H 19.103 44.532 30.266
H 17.689 43.993 29.475
