137

Mg 19.652 27.022 26.626
C 23.177 26.621 26.527
C 20.024 29.591 28.91 
H 20.045 30.306 29.651
C 16.312 27.421 26.72 
H 15.252 27.604 26.722
C 19.335 24.32  24.496
H 19.317 23.402 23.95 
N 21.388 28.031 27.526
C 22.728 27.666 27.3  
C 23.63  28.673 28.079
H 24.24  28.078 28.81 
C 22.598 29.471 28.902
H 22.754 30.494 28.733
C 21.216 28.996 28.466
C 22.901 29.431 30.446
H 24.009 29.556 30.56 
H 22.36  30.139 31.036
H 22.619 28.483 30.792
C 24.538 29.509 27.132
H 23.914 30.333 26.854
H 24.745 28.991 26.162
C 25.92  29.842 27.67 
H 26.21  29.234 28.503
H 26.635 29.568 26.936
C 26.211 31.277 28.041
O 27.348 31.681 28.263
O 25.068 32.104 28.034
N 18.428 28.295 27.554
C 18.711 29.256 28.487
C 17.467 29.821 29.008
C 16.457 29.25  28.266
C 17.044 28.339 27.418
C 17.326 30.792 30.137
H 17.885 30.638 31.041
H 17.445 31.816 29.824
H 16.253 30.738 30.414
C 15.017 29.453 28.523
H 14.566 29.451 29.5  
C 14.198 29.613 27.458
H 14.574 29.678 26.428
H 13.102 29.819 27.593
N 18.087 26.051 25.754
C 16.777 26.399 25.878
C 16.033 25.512 25.006
C 16.923 24.685 24.317
C 18.182 25.03  24.88 
C 14.535 25.476 24.854
H 14.238 24.441 24.967
H 13.987 26.046 25.564
H 14.307 25.82  23.85 
C 16.618 23.659 23.249
H 17.074 22.673 23.504
H 15.48  23.499 23.104
C 17.244 23.874 21.821
H 18.327 23.956 21.911
H 16.964 23.023 21.149
H 16.778 24.843 21.48 
N 20.967 25.732 25.704
C 20.632 24.655 24.879
C 21.883 23.984 24.527
C 22.926 24.683 25.19 
C 22.312 25.762 25.903
C 22.082 22.79  23.59 
H 23.09  22.842 23.375
H 21.639 21.889 24.103
H 21.571 22.924 22.621
C 24.319 24.773 25.307
O 25.247 24.168 24.777
C 24.601 26.045 26.311
H 25.253 26.704 25.8  
C 25.262 25.548 27.542
O 25.133 24.408 28.022
O 25.983 26.555 28.136
C 26.61  26.158 29.419
H 27.111 27.037 29.709
H 25.764 25.947 30.108
H 27.385 25.343 29.473
C 25.346 33.551 27.982
H 25.772 33.871 27.037
H 26.076 33.823 28.78 
C 24.115 34.359 28.261
H 23.664 34.186 29.227
C 23.543 35.291 27.478
C 24.047 35.64  26.078
H 23.689 34.868 25.448
H 23.749 36.671 25.83 
H 25.136 35.589 25.982
C 22.338 36.048 27.851
H 21.713 35.423 28.485
H 21.679 36.25  26.921
C 22.476 37.309 28.621
H 23.441 37.173 29.162
H 21.723 37.544 29.37 
C 22.508 38.443 27.579
H 22.273 38.133 26.538
H 23.608 38.606 27.471
C 21.732 39.82  27.939
H 21.668 40.075 28.985
C 20.182 39.657 27.849
H 19.894 39.513 26.805
H 19.858 38.804 28.322
H 19.599 40.41  28.283
C 22.306 41.118 27.306
H 21.77  41.961 27.692
H 22.132 41.063 26.236
C 23.796 41.289 27.48 
H 24.344 40.931 26.608
H 24.184 40.666 28.238
C 24.357 42.672 27.789
H 25.002 42.606 28.666
H 23.646 43.403 28.089
C 25.228 43.304 26.651
H 26.053 42.671 26.384
C 25.901 44.648 27.159
H 26.584 44.482 28.002
H 26.489 45.11  26.414
H 25.091 45.318 27.429
C 24.411 43.488 25.32 
H 23.552 44.192 25.575
H 23.896 42.564 25.046
C 25.185 43.997 24.113
H 26.124 44.172 24.435
H 24.873 45.011 23.844
C 25.1   43.16  22.799
H 24.857 42.09  23.003
H 26.069 43.139 22.277
C 24.059 43.721 21.8  
H 24.329 44.751 21.661
C 22.545 43.584 22.213
H 22.368 43.955 23.216
H 21.812 44.107 21.548
H 22.264 42.549 22.249
C 24.146 42.963 20.476
H 24.076 41.879 20.7  
H 23.33  43.305 19.818
H 25.096 43.235 19.946
