137

Mg 27.08  30.478 38.524
C 26.126 28.077 40.997
C 26.971 27.985 36.237
H 26.842 27.208 35.527
C 27.944 32.741 36.129
H 28.233 33.44  35.39 
C 27.879 32.69  41.035
H 28.179 33.359 41.854
N 26.65  28.224 38.605
C 26.228 27.456 39.74 
C 25.767 25.992 39.191
H 26.279 25.131 39.749
C 26.267 26.042 37.718
H 25.386 25.79  37.116
C 26.673 27.474 37.453
C 27.303 24.919 37.306
H 28.061 24.971 38.065
H 26.788 23.924 37.345
H 27.669 25.142 36.364
C 24.275 25.661 39.384
H 23.695 26.38  38.78 
H 24.052 25.854 40.458
C 23.79  24.224 39.063
H 24.624 23.749 38.549
H 23.516 23.71  40.019
C 22.726 24.054 38.039
O 21.959 24.95  37.671
O 22.496 22.747 37.754
N 27.335 30.365 36.515
C 27.279 29.285 35.701
C 27.483 29.648 34.286
C 27.786 31.009 34.233
C 27.654 31.448 35.689
C 27.497 28.633 33.15 
H 27.229 27.606 33.399
H 26.799 28.826 32.339
H 28.433 28.678 32.629
C 28.281 31.877 33.197
H 28.864 32.809 33.5  
C 28.024 31.643 31.899
H 27.275 30.819 31.625
H 28.339 32.354 31.08 
N 27.73  32.383 38.582
C 27.99  33.19  37.456
C 28.595 34.419 37.977
C 28.558 34.376 39.332
C 27.953 33.156 39.674
C 29.1   35.571 37.115
H 29.165 36.423 37.759
H 30.12  35.457 36.803
H 28.49  35.787 36.243
C 29.085 35.419 40.323
H 29.617 34.957 41.126
H 29.789 36.082 39.798
C 27.932 36.161 41.015
H 28.293 36.705 41.929
H 27.504 36.903 40.358
H 27.078 35.554 41.324
N 26.914 30.488 40.54 
C 27.331 31.431 41.413
C 27.173 31.033 42.796
C 26.691 29.684 42.684
C 26.571 29.422 41.296
C 27.478 31.756 44.105
H 28.183 31.147 44.674
H 27.929 32.769 44.095
H 26.58  31.778 44.712
C 26.349 28.468 43.45 
O 26.437 28.286 44.672
C 25.925 27.466 42.382
H 24.828 27.284 42.477
C 26.75  26.27  42.617
O 27.806 25.908 42.115
O 26.068 25.494 43.544
C 26.706 24.236 44.033
H 27.666 23.974 43.665
H 26.953 24.419 45.1  
H 25.942 23.447 44.036
C 21.267 22.461 36.987
H 21.099 23.22  36.209
H 20.412 22.493 37.67 
C 21.436 21.043 36.43 
H 21.826 20.27  37.146
C 21.189 20.642 35.153
C 20.564 21.452 34.012
H 19.807 20.921 33.471
H 20.126 22.403 34.39 
H 21.227 21.702 33.086
C 21.395 19.217 34.733
H 22.243 18.763 35.24 
H 21.809 19.346 33.748
C 20.216 18.289 34.707
H 19.407 18.478 35.451
H 20.703 17.431 35.144
C 19.704 17.987 33.284
H 19.905 18.832 32.636
H 18.615 17.712 33.213
C 20.327 16.641 32.669
H 21.396 16.774 32.793
C 20.204 16.494 31.068
H 20.934 15.818 30.646
H 19.118 16.26  30.763
H 20.339 17.509 30.663
C 19.848 15.338 33.343
H 20.076 15.456 34.431
H 20.398 14.611 32.883
C 18.321 15.109 33.111
H 17.815 15.724 32.368
H 17.892 15.449 34.068
C 17.818 13.631 32.882
H 17.522 13.184 33.853
H 18.659 13.077 32.49 
C 16.423 13.497 32.198
H 16.528 14.152 31.339
C 15.226 13.991 33.066
H 14.283 13.732 32.664
H 15.359 13.422 33.915
H 15.172 15.004 33.328
C 16.183 12.034 31.609
H 15.092 11.856 31.429
H 16.377 11.407 32.463
C 17.08  11.566 30.526
H 17.56  10.636 30.946
H 17.869 12.272 30.352
C 16.302 11.243 29.3  
H 16.29  12.232 28.803
H 15.201 11.107 29.448
C 16.861 10.029 28.475
H 16.748  9.106 29.006
C 18.37  10.163 28.14 
H 18.482 11.162 27.687
H 19.065 10.142 28.961
H 18.713  9.44  27.393
C 16.113  9.738 27.185
H 15.35   9.065 27.507
H 15.532 10.611 26.759
H 16.739  9.339 26.437
