137

Mg 17.709 24.236 29.118
C 20.967 24.912 30.299
C 16.683 27.206 30.525
H 16.419 28.193 30.987
C 14.466 23.478 28.331
H 13.431 23.283 27.989
C 18.829 21.282 27.918
H 19.241 20.349 27.497
N 18.694 25.898 30.151
C 20.057 26.007 30.483
C 20.39  27.339 31.097
H 20.952 27.174 32.006
C 18.951 28.    31.255
H 18.9   28.923 30.671
C 18.02  26.966 30.633
C 18.666 28.397 32.669
H 17.986 29.197 32.714
H 18.335 27.551 33.279
H 19.581 28.768 33.035
C 21.392 28.108 30.158
H 20.845 28.359 29.181
H 22.251 27.502 29.886
C 21.952 29.387 30.79 
H 21.705 29.396 31.878
H 23.006 29.351 30.795
C 21.497 30.688 30.135
O 20.755 30.799 29.136
O 22.071 31.786 30.761
N 15.869 25.218 29.366
C 15.655 26.386 30.016
C 14.278 26.755 29.919
C 13.608 25.781 29.208
C 14.629 24.732 28.951
C 13.756 28.145 30.259
H 12.675 28.351 30.06 
H 13.922 28.417 31.285
H 14.309 28.772 29.629
C 12.196 25.825 28.688
H 11.324 25.729 29.303
C 12.079 26.004 27.34 
H 13.052 26.203 26.763
H 11.056 26.135 26.904
N 16.807 22.612 28.19 
C 15.443 22.483 27.952
C 15.213 21.222 27.292
C 16.517 20.681 27.073
C 17.458 21.513 27.723
C 13.826 20.77  27.02 
H 13.779 20.228 26.066
H 13.352 20.189 27.789
H 13.188 21.577 26.918
C 16.737 19.306 26.391
H 17.38  18.764 27.106
H 15.745 18.812 26.308
C 17.41  19.463 25.007
H 16.755 19.891 24.267
H 18.302 20.126 25.001
H 17.583 18.499 24.546
N 19.458 23.231 29.08 
C 19.811 22.03  28.631
C 21.24  21.772 28.729
C 21.707 22.82  29.49 
C 20.581 23.675 29.697
C 22.031 20.621 28.312
H 21.409 19.952 27.727
H 22.966 20.818 27.784
H 22.36  20.063 29.166
C 22.891 23.408 30.144
O 24.027 22.998 30.186
C 22.434 24.774 30.611
H 23.086 25.405 30.036
C 22.805 24.849 31.98 
O 22.36  24.184 32.902
O 23.521 26.014 32.184
C 23.483 26.492 33.59 
H 23.991 25.905 34.268
H 23.949 27.508 33.667
H 22.479 26.605 34.035
C 22.143 32.984 29.898
H 22.393 32.901 28.862
H 22.977 33.599 30.25 
C 20.743 33.615 30.068
H 19.929 33.04  29.587
C 20.388 34.715 30.754
C 21.357 35.633 31.503
H 22.34  35.313 31.347
H 21.077 36.649 31.147
H 21.243 35.756 32.549
C 18.998 35.306 30.655
H 18.523 34.839 29.778
H 19.037 36.301 30.21 
C 18.128 35.189 31.897
H 18.519 34.437 32.596
H 17.146 34.773 31.55 
C 17.952 36.529 32.658
H 17.075 37.038 32.316
H 18.855 37.096 32.357
C 17.884 36.406 34.196
H 18.839 35.914 34.464
C 16.767 35.511 34.658
H 15.827 35.893 34.327
H 16.826 34.47  34.426
H 16.866 35.554 35.741
C 17.789 37.811 34.93 
H 17.545 37.606 35.926
H 16.934 38.292 34.46 
C 19.088 38.673 34.89 
H 19.788 38.29  34.199
H 19.515 38.621 35.854
C 18.806 40.152 34.593
H 18.736 40.652 35.511
H 17.8   40.351 34.192
C 19.893 40.901 33.755
H 20.852 40.38  33.878
C 20.042 42.429 34.067
H 19.097 42.938 33.919
H 20.257 42.442 35.116
H 20.744 42.928 33.407
C 19.605 40.71  32.216
H 18.693 41.234 31.845
H 19.395 39.609 31.995
C 20.849 41.112 31.447
H 21.723 40.975 32.015
H 20.781 42.159 31.201
C 20.915 40.407 30.064
H 21.038 41.139 29.266
H 19.935 39.883 29.816
C 22.04  39.367 29.817
H 21.891 38.614 30.675
C 23.47  39.944 29.785
H 24.236 39.155 29.779
H 23.547 40.506 28.833
H 23.605 40.606 30.582
C 21.869 38.551 28.538
H 21.988 39.127 27.637
H 22.659 37.763 28.478
H 20.91  38.042 28.477
