137

Mg 36.517 31.235 35.845
C 33.657 29.58  34.762
C 38.114 30.474 32.965
H 38.651 30.277 32.038
C 39.333 32.597 37.223
H 40.262 33.066 37.692
C 34.691 32.033 38.791
H 34.197 32.442 39.681
N 35.914 30.163 34.033
C 34.72  29.561 33.807
C 34.599 29.031 32.371
H 34.183 28.002 32.388
C 36.132 29.134 31.935
H 36.221 29.702 31.038
C 36.77  30.038 33.003
C 36.822 27.844 31.739
H 37.776 28.169 31.225
H 37.075 27.313 32.693
H 36.248 27.03  31.184
C 33.683 29.855 31.5  
H 34.118 30.823 31.523
H 32.737 29.965 31.999
C 33.41  29.348 30.05 
H 33.602 30.19  29.374
H 34.114 28.562 29.808
C 31.951 29.09  29.717
O 31.304 28.18  30.21 
O 31.432 30.024 28.831
N 38.409 31.445 35.275
C 38.895 31.071 34.071
C 40.239 31.435 33.875
C 40.581 32.172 35.018
C 39.445 32.098 35.899
C 41.175 31.165 32.743
H 40.88  31.854 31.89 
H 42.201 31.136 33.106
H 41.003 30.1   32.449
C 41.797 32.764 35.473
H 42.242 32.269 36.368
C 42.383 33.816 34.831
H 41.873 34.251 33.958
H 43.31  34.315 35.152
N 36.933 32.149 37.638
C 38.176 32.61  38.026
C 38.086 33.24  39.391
C 36.762 33.068 39.74 
C 36.071 32.402 38.694
C 39.277 33.722 40.187
H 39.433 34.772 40.09 
H 39.216 33.44  41.228
H 40.186 33.299 39.828
C 36.188 33.477 41.071
H 35.723 32.617 41.527
H 36.995 33.85  41.697
C 35.17  34.615 41.187
H 35.024 34.755 42.242
H 35.504 35.558 40.719
H 34.227 34.285 40.747
N 34.539 30.99  36.644
C 33.909 31.472 37.792
C 32.538 31.102 37.79 
C 32.414 30.363 36.705
C 33.604 30.32  35.96 
C 31.428 31.325 38.84 
H 31.059 32.334 38.669
H 30.683 30.501 38.904
H 31.86  31.287 39.797
C 31.49  29.534 35.982
O 30.271 29.242 36.26 
C 32.212 29.058 34.709
H 31.72 29.4  33.87
C 32.238 27.543 34.646
O 32.531 26.713 35.519
O 31.828 27.237 33.378
C 31.645 25.841 33.039
H 32.313 25.232 33.658
H 30.595 25.537 33.35 
H 31.812 25.675 32.003
C 29.96  30.159 28.863
H 29.594 30.282 29.814
H 29.399 29.375 28.244
C 29.646 31.419 28.036
H 30.184 31.374 27.123
C 28.863 32.503 28.29 
C 27.971 32.83  29.548
H 27.94  31.945 30.221
H 28.274 33.752 30.139
H 26.928 32.899 29.207
C 28.882 33.667 27.253
H 29.492 33.402 26.343
H 29.375 34.571 27.716
C 27.593 34.12  26.536
H 26.881 33.352 26.665
H 27.859 34.134 25.506
C 27.088 35.527 26.853
H 27.346 35.93  27.859
H 26.032 35.43  26.869
C 27.511 36.637 25.869
H 27.246 36.24  24.884
C 29.022 36.906 25.982
H 29.345 37.264 26.997
H 29.57  36.017 25.929
H 29.258 37.669 25.267
C 26.701 37.895 26.128
H 27.175 38.704 25.609
H 26.73  38.082 27.164
C 25.222 37.88  25.627
H 24.974 36.878 25.224
H 25.059 38.547 24.728
C 24.151 38.308 26.587
H 23.557 39.093 26.14 
H 24.569 38.72  27.533
C 23.222 37.143 27.024
H 23.76  36.226 27.075
C 22.191 36.88  25.923
H 21.58  35.961 26.025
H 21.475 37.645 25.805
H 22.746 36.897 25.013
C 22.379 37.443 28.246
H 21.516 36.776 28.291
H 21.877 38.389 28.128
C 23.197 37.465 29.564
H 23.024 38.484 29.943
H 24.256 37.317 29.452
C 22.862 36.362 30.595
H 23.737 35.796 30.877
H 22.288 35.564 30.05 
C 22.19  36.833 31.964
H 22.009 37.875 31.887
C 23.224 36.666 33.114
H 24.115 37.229 32.859
H 22.867 37.17  33.943
H 23.364 35.601 33.376
C 20.847 36.056 32.282
H 20.228 36.682 33.018
H 20.41  36.051 31.335
H 21.209 35.036 32.59 
