137

Mg 38.102 26.989 33.548
C 34.675 27.145 34.21 
C 37.363 24.657 31.125
H 37.056 24.051 30.279
C 41.328 26.81  32.947
H 42.384 26.733 32.765
C 38.61  28.968 36.264
H 38.83  29.53  37.217
N 36.252 26.033 32.675
C 34.992 26.325 33.096
C 33.908 25.569 32.28 
H 33.196 25.09  32.986
C 34.848 24.569 31.446
H 34.658 24.801 30.386
C 36.221 25.035 31.818
C 34.549 23.036 31.504
H 35.142 22.626 30.679
H 34.714 22.584 32.484
H 33.51  22.883 31.254
C 32.96  26.462 31.37 
H 33.571 27.101 30.788
H 32.479 27.212 32.099
C 31.924 25.612 30.571
H 32.025 25.948 29.546
H 32.142 24.565 30.602
C 30.477 25.851 30.994
O 29.679 25.03  31.433
O 30.134 27.128 30.838
N 39.171 25.868 32.346
C 38.699 25.006 31.297
C 39.843 24.515 30.475
C 41.045 25.128 31.019
C 40.531 25.985 32.135
C 39.63  23.473 29.341
H 40.263 23.573 28.532
H 39.967 22.499 29.707
H 38.671 23.595 28.915
C 42.436 24.965 30.692
H 43.145 25.73  30.951
C 42.915 23.868 30.048
H 42.237 22.985 29.801
H 43.973 23.818 29.802
N 39.756 27.808 34.419
C 41.035 27.702 34.011
C 41.924 28.588 34.796
C 41.069 29.163 35.816
C 39.725 28.586 35.488
C 43.387 28.726 34.598
H 43.864 27.989 35.297
H 43.604 28.614 33.505
H 43.655 29.793 34.84 
C 41.548 30.058 36.89 
H 41.206 29.601 37.825
H 42.686 30.066 36.813
C 41.174 31.527 36.755
H 41.748 32.097 37.478
H 41.209 31.839 35.749
H 40.163 31.72  37.147
N 36.994 27.862 34.938
C 37.27  28.684 36.026
C 36.138 29.16  36.735
C 35.071 28.54  36.085
C 35.631 27.76  35.011
C 36.234 30.14  37.796
H 36.824 30.967 37.477
H 35.198 30.464 38.07 
H 36.73  29.625 38.623
C 33.654 28.426 36.07 
O 32.81  28.945 36.721
C 33.401 27.557 34.85 
H 32.795 28.06  34.141
C 32.498 26.421 35.288
O 32.585 25.712 36.235
O 31.41  26.338 34.45 
C 30.324 25.376 34.739
H 30.544 24.333 34.446
H 30.002 25.467 35.8  
H 29.503 25.646 34.204
C 28.697 27.416 30.912
H 28.209 27.264 31.942
H 28.306 26.732 30.177
C 28.319 28.779 30.336
H 29.141 29.365 30.015
C 27.121 29.37  30.154
C 25.866 28.683 30.607
H 26.162 27.66  30.781
H 25.479 29.16  31.531
H 25.044 28.714 29.904
C 26.983 30.831 29.655
H 28.005 31.221 29.425
H 26.54  31.384 30.52 
C 26.048 31.061 28.409
H 25.564 32.057 28.487
H 25.26  30.306 28.439
C 26.822 30.846 27.093
H 27.925 30.824 27.106
H 26.542 31.722 26.458
C 26.273 29.659 26.221
H 25.253 29.749 26.391
C 26.862 28.253 26.635
H 26.342 27.481 26.066
H 27.886 28.334 26.409
H 26.705 28.028 27.715
C 26.594 29.941 24.729
H 26.508 28.9   24.197
H 27.614 30.264 24.681
C 25.796 31.031 24.034
H 26.377 31.945 24.189
H 24.783 31.168 24.435
C 25.652 30.844 22.54 
H 24.706 30.234 22.384
H 26.518 30.233 22.235
C 25.77  32.102 21.561
H 26.837 32.382 21.609
C 24.937 33.367 21.9  
H 25.284 34.202 21.273
H 23.988 33.176 21.583
H 24.969 33.77  22.944
C 25.543 31.7   19.982
H 26.108 32.49  19.422
H 24.461 31.772 19.814
C 26.061 30.27  19.45 
H 25.258 29.891 18.831
H 26.135 29.538 20.241
C 27.359 30.379 18.72 
H 28.109 29.694 19.136
H 27.803 31.294 18.84 
C 27.167 30.191 17.164
H 26.298 30.741 16.756
C 26.932 28.675 16.851
H 27.793 28.129 17.394
H 25.996 28.279 17.25 
H 26.954 28.444 15.826
C 28.42  30.673 16.359
H 28.293 30.515 15.341
H 28.361 31.775 16.407
H 29.346 30.339 16.73 
