137

Mg 20.919 24.171 31.151
C 23.787 22.418 30.629
C 22.661 26.551 33.032
H 23.305 27.26  33.495
C 18.299 26.147 31.06 
H 17.463 26.812 30.964
C 19.198 21.802 29.262
H 18.576 21.04  28.744
N 22.911 24.246 31.888
C 23.992 23.461 31.477
C 25.274 23.943 32.182
H 25.61  23.16  32.854
C 24.808 25.151 33.046
H 25.255 26.086 32.751
C 23.344 25.368 32.641
C 25.043 25.084 34.584
H 24.547 24.14  35.006
H 26.091 25.125 34.826
H 24.69  26.007 35.033
C 26.353 24.309 31.209
H 25.962 25.053 30.587
H 26.572 23.408 30.58 
C 27.69  24.803 31.762
H 27.857 24.899 32.879
H 28.534 24.154 31.44 
C 28.122 26.169 31.293
O 28.661 26.371 30.229
O 27.814 27.127 32.211
N 20.535 26.139 31.797
C 21.325 26.903 32.639
C 20.625 28.303 32.731
C 19.448 28.18  31.957
C 19.376 26.775 31.649
C 21.261 29.535 33.428
H 22.307 29.31  33.616
H 21.328 30.378 32.72 
H 20.659 29.869 34.302
C 18.489 29.235 31.649
H 17.689 28.979 30.963
C 18.414 30.505 32.063
H 19.217 30.96  32.734
H 17.61  31.172 31.835
N 18.985 23.973 30.269
C 18.017 24.921 30.471
C 16.716 24.435 30.001
C 17.033 23.155 29.385
C 18.462 22.943 29.649
C 15.396 25.1   30.301
H 14.597 24.367 30.247
H 15.472 25.237 31.365
H 15.223 26.009 29.679
C 16.052 22.221 28.738
H 15.215 22.84  28.404
H 16.5   21.729 27.847
C 15.643 21.125 29.68 
H 14.829 21.466 30.288
H 15.206 20.244 29.095
H 16.404 20.83  30.35 
N 21.402 22.478 30.183
C 20.565 21.586 29.482
C 21.294 20.422 29.061
C 22.659 20.775 29.335
C 22.695 21.976 30.107
C 20.833 19.387 28.112
H 20.735 19.78  27.061
H 21.579 18.598 28.115
H 19.929 18.98  28.53 
C 24.078 20.415 29.178
O 24.656 19.577 28.5  
C 24.8   21.416 30.048
H 25.485 21.891 29.367
C 25.5   20.657 31.027
O 25.1   20.136 32.063
O 26.686 20.191 30.518
C 27.513 19.323 31.308
H 27.814 19.872 32.199
H 26.973 18.448 31.589
H 28.431 19.034 30.758
C 27.989 28.54  31.808
H 27.579 28.6   30.742
H 29.04  28.765 31.754
C 27.161 29.37  32.701
H 27.545 29.313 33.702
C 26.161 30.201 32.364
C 25.527 30.316 30.995
H 24.608 29.892 30.943
H 25.414 31.365 30.758
H 26.091 29.878 30.209
C 25.663 31.24  33.345
H 25.836 30.735 34.31 
H 24.593 31.379 33.202
C 26.315 32.636 33.423
H 27.201 32.753 32.803
H 26.578 32.76  34.479
C 25.306 33.733 32.84 
H 24.533 33.318 32.244
H 25.828 34.509 32.266
C 24.552 34.576 33.933
H 25.202 34.927 34.692
C 23.448 33.778 34.621
H 22.782 33.407 33.785
H 23.916 32.907 35.093
H 22.9   34.437 35.312
C 23.964 35.853 33.313
H 23.418 36.253 34.228
H 23.188 35.547 32.631
C 24.998 36.969 32.792
H 25.178 36.695 31.746
H 25.794 37.196 33.556
C 24.28  38.352 32.612
H 24.995 38.991 31.987
H 24.2   38.891 33.615
C 22.93  38.374 31.873
H 22.173 37.856 32.508
C 23.083 37.87  30.43 
H 23.29  36.798 30.403
H 22.23  38.003 29.814
H 24.017 38.373 30.028
C 22.565 39.833 31.766
H 23.34  40.214 31.103
H 22.83  40.398 32.725
C 21.2   40.372 31.219
H 20.69  39.542 30.642
H 21.36  41.177 30.427
C 20.24  40.984 32.217
H 20.875 41.497 32.959
H 19.66  40.199 32.714
C 19.326 41.982 31.587
H 19.87  42.863 31.17 
C 18.636 42.628 32.751
H 17.745 43.293 32.526
H 18.236 41.897 33.402
H 19.389 43.158 33.364
C 18.28  41.403 30.575
H 17.549 40.974 31.118
H 17.874 42.234 30.027
H 18.687 40.724 29.85 
