137

Mg 25.364 29.652 37.56 
C 23.506 26.981 38.814
C 22.309 30.941 36.551
H 21.395 31.378 36.173
C 26.874 32.693 37.122
H 27.279 33.723 37.176
C 28.173 28.452 39.016
H 29.079 27.965 39.357
N 23.207 28.952 37.46 
C 22.679 27.872 38.157
C 21.151 27.756 37.978
H 20.858 26.843 37.443
C 20.757 28.97  37.109
H 20.046 29.603 37.63 
C 22.154 29.691 37.055
C 20.274 28.69  35.63 
H 20.022 29.615 35.078
H 21.018 28.06  35.127
H 19.384 28.094 35.661
C 20.368 27.729 39.34 
H 20.602 28.646 39.901
H 20.79  26.962 39.967
C 18.816 27.712 39.28 
H 18.517 27.727 38.242
H 18.576 26.752 39.628
C 18.032 28.703 40.069
O 18.017 28.666 41.322
O 17.286 29.61  39.32 
N 24.7   31.493 36.758
C 23.42  31.798 36.445
C 23.489 33.139 35.998
C 24.731 33.677 36.36 
C 25.55  32.646 36.764
C 22.246 33.826 35.546
H 22.609 34.774 35.274
H 21.754 33.357 34.711
H 21.542 33.78  36.344
C 25.232 35.044 36.118
H 26.015 35.276 35.432
C 24.654 36.16  36.577
H 23.789 36.092 37.211
H 25.018 37.173 36.293
N 27.262 30.361 37.847
C 27.667 31.653 37.652
C 29.028 31.806 38.081
C 29.447 30.576 38.549
C 28.299 29.731 38.506
C 29.814 33.078 37.983
H 30.785 33.024 38.448
H 30.007 33.28  36.975
H 29.195 33.862 38.406
C 30.779 30.148 39.114
H 31.04  29.147 38.71 
H 31.616 30.801 38.765
C 30.871 30.06  40.653
H 30.121 29.435 40.96 
H 31.785 29.491 40.821
H 30.747 31.037 41.158
N 25.808 28.005 38.429
C 27.025 27.585 38.942
C 26.869 26.302 39.529
C 25.485 25.981 39.514
C 24.9   27.053 38.823
C 27.908 25.447 40.183
H 28.769 25.464 39.533
H 28.232 25.809 41.201
H 27.463 24.517 40.221
C 24.459 25.044 39.884
O 24.534 24.01  40.488
C 23.145 25.637 39.364
H 22.544 25.606 40.261
C 22.614 24.668 38.351
O 23.279 24.214 37.408
O 21.248 24.444 38.596
C 20.557 23.688 37.511
H 20.155 24.408 36.865
H 21.131 22.875 36.953
H 19.764 23.244 38.062
C 16.51  30.613 40.146
H 17.092 31.004 41.006
H 15.696 30.03  40.538
C 16.062 31.713 39.208
H 15.921 31.54  38.108
C 16.002 32.92  39.76 
C 16.08  33.418 41.227
H 17.029 33.962 41.455
H 15.214 34.011 41.494
H 16.072 32.606 41.943
C 15.999 34.154 38.827
H 16.136 33.877 37.76 
H 16.9   34.785 39.148
C 14.765 35.008 38.939
H 14.779 35.714 39.833
H 13.884 34.414 39.244
C 14.433 35.883 37.67 
H 13.322 35.893 37.57 
H 14.904 35.422 36.823
C 14.823 37.423 37.642
H 14.306 37.834 38.502
C 14.165 38.236 36.542
H 14.24  39.339 36.67 
H 14.635 38.022 35.6  
H 13.127 37.983 36.44 
C 16.395 37.613 37.672
H 16.696 37.394 38.662
H 16.602 38.649 37.438
C 17.248 36.825 36.638
H 16.582 36.492 35.85 
H 17.707 36.007 37.179
C 18.383 37.736 36.158
H 18.898 38.146 37.048
H 18.058 38.622 35.678
C 19.412 37.102 35.214
H 19.647 36.078 35.596
C 20.795 37.842 35.128
H 21.47  37.456 34.42 
H 20.678 38.87  34.871
H 21.214 37.819 36.16 
C 18.792 36.811 33.826
H 18.657 37.908 33.388
H 17.827 36.2   33.864
C 19.868 36.103 32.885
H 20.517 35.496 33.446
H 20.398 36.902 32.289
C 19.172 35.251 31.865
H 18.051 35.444 31.876
H 19.282 34.216 32.315
C 19.57  35.437 30.389
H 20.652 35.487 30.401
C 18.999 36.686 29.732
H 19.353 36.799 28.675
H 17.928 36.695 29.7  
H 19.348 37.588 30.25 
C 19.321 34.088 29.701
H 19.535 34.263 28.659
H 19.899 33.337 30.201
H 18.249 33.801 29.788
