137

Mg 30.022 33.828 34.085
C 27.641 34.762 36.499
C 27.543 32.416 32.412
H 26.704 31.927 31.885
C 32.366 32.866 31.906
H 33.131 32.643 31.126
C 32.493 35.06  36.215
H 33.221 35.431 36.868
N 27.853 33.732 34.365
C 27.036 34.296 35.354
C 25.555 34.153 35.125
H 25.141 33.556 35.979
C 25.557 33.174 33.913
H 24.842 33.552 33.21 
C 27.039 33.075 33.541
C 25.033 31.772 34.304
H 25.106 31.156 33.418
H 25.644 31.422 35.077
H 23.951 31.822 34.548
C 24.849 35.469 34.911
H 24.777 35.77  33.896
H 25.474 36.12  35.538
C 23.405 35.418 35.521
H 23.002 34.459 35.846
H 23.492 35.988 36.438
C 22.347 36.108 34.695
O 22.142 37.309 34.751
O 21.453 35.216 34.272
N 29.987 32.692 32.531
C 28.869 32.214 31.949
C 29.197 31.507 30.664
C 30.59  31.566 30.541
C 31.084 32.374 31.745
C 28.17  30.883 29.773
H 27.166 31.319 29.995
H 28.405 31.017 28.763
H 28.076 29.844 30.032
C 31.434 31.247 29.344
H 32.367 31.755 29.21 
C 31.17  30.256 28.429
H 30.225 29.727 28.416
H 31.858 29.917 27.615
N 32.071 33.989 34.015
C 32.815 33.576 32.995
C 34.237 33.926 33.192
C 34.242 34.547 34.459
C 32.879 34.55  34.97 
C 35.361 33.362 32.319
H 35.177 33.28  31.199
H 36.184 34.076 32.528
H 35.576 32.4   32.786
C 35.433 35.038 35.226
H 35.326 34.636 36.237
H 36.347 34.608 34.831
C 35.604 36.506 35.138
H 34.7   37.151 35.308
H 36.385 36.804 35.814
H 35.957 36.669 34.165
N 30.074 34.702 35.923
C 31.164 35.148 36.727
C 30.731 35.56  37.97 
C 29.325 35.482 37.86 
C 28.979 34.974 36.624
C 31.54  35.934 39.185
H 32.369 35.239 39.303
H 31.789 36.968 38.897
H 30.853 36.058 40.006
C 28.08  35.826 38.565
O 27.871 36.39  39.609
C 26.948 35.304 37.706
H 26.383 36.265 37.498
C 26.235 34.27  38.504
O 26.8   33.318 39.078
O 24.891 34.459 38.494
C 24.175 33.591 39.436
H 23.113 33.617 39.299
H 24.427 32.579 39.129
H 24.334 33.824 40.456
C 20.144 35.788 33.912
H 20.097 36.551 33.153
H 19.672 36.102 34.875
C 19.335 34.654 33.289
H 19.375 33.62  33.746
C 18.456 34.765 32.332
C 18.001 36.102 31.679
H 16.891 35.952 31.586
H 18.299 36.966 32.218
H 18.58  36.252 30.726
C 17.847 33.538 31.529
H 18.644 32.878 31.263
H 17.638 33.818 30.499
C 16.546 32.916 32.165
H 16.386 33.15  33.162
H 16.697 31.831 32.117
C 15.265 33.098 31.339
H 15.363 34.007 30.775
H 14.488 33.198 32.059
C 14.979 32.077 30.308
H 15.811 31.388 30.081
C 14.627 32.68  28.981
H 15.553 33.145 28.572
H 14.145 31.99  28.288
H 13.911 33.484 28.999
C 13.97  31.009 30.655
H 14.365 30.393 31.438
H 13.929 30.368 29.762
C 12.512 31.403 30.968
H 12.393 32.51  31.144
H 12.217 30.883 31.89 
C 11.517 31.025 29.91 
H 11.939 30.97  28.895
H 10.749 31.772 29.847
C 10.739 29.737 30.131
H 10.208 29.798 31.055
C 11.627 28.5   30.342
H 12.272 28.378 29.5  
H 12.214 28.663 31.273
H 10.908 27.661 30.465
C  9.664 29.609 28.98 
H 10.146 29.79  28.039
H  8.815 30.303 29.069
C  8.897 28.236 28.931
H  7.79  28.319 28.758
H  9.016 27.811 29.919
C  9.341 27.215 27.836
H  9.623 26.261 28.312
H 10.204 27.611 27.351
C  8.253 26.884 26.802
H  7.41  26.589 27.327
C  8.737 25.811 25.902
H  8.285 25.935 24.983
H  9.848 25.829 25.761
H  8.461 24.83  26.283
C  8.066 28.193 25.955
H  7.215 28.033 25.279
H  7.818 29.097 26.511
H  8.856 28.322 25.28 
