137

Mg 36.394 30.599 34.25 
C 33.313 29.175 33.539
C 37.533 29.32  31.211
H 37.989 28.944 30.247
C 39.263 32.324 34.593
H 40.092 33.003 34.502
C 35.122 32.028 37.115
H 34.745 32.509 38.03 
N 35.467 29.481 32.525
C 34.159 29.058 32.495
C 33.961 28.269 31.124
H 33.47  27.34  31.319
C 35.418 28.012 30.583
H 35.541 28.315 29.596
C 36.223 28.998 31.466
C 35.94  26.577 30.523
H 36.995 26.646 30.449
H 35.635 26.012 31.379
H 35.592 26.147 29.639
C 33.067 29.025 30.116
H 33.432 29.947 29.715
H 32.212 29.492 30.701
C 32.582 28.137 28.915
H 32.761 28.538 27.978
H 33.148 27.171 28.904
C 31.082 27.883 28.941
O 30.498 27.196 29.737
O 30.486 28.611 27.953
N 38.103 30.752 33.155
C 38.374 30.199 31.906
C 39.712 30.571 31.504
C 40.27  31.273 32.571
C 39.199 31.445 33.497
C 40.519 30.013 30.37 
H 41.149 29.269 30.818
H 40.001 29.597 29.482
H 41.228 30.697 29.934
C 41.729 31.715 32.681
H 42.18  31.875 31.778
C 42.389 31.722 33.876
H 41.756 31.418 34.814
H 43.473 32.045 34.119
N 37.051 31.948 35.65 
C 38.323 32.606 35.595
C 38.431 33.478 36.66 
C 37.264 33.335 37.45 
C 36.388 32.421 36.736
C 39.629 34.45  36.91 
H 40.539 34.116 36.52 
H 39.275 35.415 36.5  
H 39.793 34.642 37.913
C 36.906 34.034 38.731
H 36.509 33.278 39.397
H 37.827 34.443 39.157
C 35.997 35.237 38.725
H 35.643 35.315 39.821
H 36.616 36.141 38.396
H 35.145 35.001 38.101
N 34.664 30.654 35.175
C 34.271 31.236 36.341
C 32.932 30.864 36.67 
C 32.516 30.091 35.609
C 33.595 29.967 34.705
C 32.132 31.248 37.953
H 32.692 30.952 38.828
H 32.142 32.378 37.941
H 31.153 30.772 38.044
C 31.414 29.365 35.148
O 30.325 29.191 35.612
C 31.871 28.796 33.739
H 31.304 29.165 32.92 
C 31.62  27.35  33.886
O 32.253 26.589 34.596
O 30.582 27.025 33.063
C 30.336 25.609 32.879
H 29.494 25.482 32.13 
H 31.191 25.21  32.386
H 30.116 25.063 33.794
C 28.998 28.334 27.829
H 28.503 27.979 28.732
H 28.876 27.611 26.985
C 28.329 29.476 27.218
H 28.887 29.823 26.358
C 27.298 30.213 27.671
C 26.573 29.97  29.007
H 25.761 29.258 28.864
H 27.088 29.421 29.754
H 26.168 30.88  29.5  
C 26.698 31.44  26.871
H 27.469 31.586 26.08 
H 26.743 32.262 27.562
C 25.238 31.248 26.426
H 25.02  30.212 26.678
H 25.181 31.513 25.27 
C 24.294 32.224 27.221
H 24.753 32.785 28.072
H 23.68  31.515 27.727
C 23.523 33.362 26.45 
H 23.065 32.983 25.534
C 24.594 34.413 25.924
H 24.937 35.085 26.704
H 25.388 33.759 25.506
H 24.154 34.969 25.075
C 22.415 34.006 27.284
H 21.899 34.581 26.493
H 22.762 34.662 28.095
C 21.298 32.995 27.7  
H 21.755 32.041 27.679
H 20.433 32.975 27.006
C 20.817 33.284 29.127
H 19.679 33.26  29.1  
H 21.063 34.242 29.472
C 21.535 32.334 30.177
H 22.571 32.317 29.948
C 20.85  30.898 30.191
H 20.858 30.485 29.183
H 21.312 30.183 30.876
H 19.841 31.06  30.535
C 21.421 32.878 31.651
H 21.918 32.154 32.269
H 20.406 33.023 31.923
C 22.153 34.228 31.773
H 21.339 34.953 31.989
H 22.673 34.447 30.92 
C 23.088 34.211 32.976
H 23.237 33.237 33.384
H 22.555 34.926 33.67 
C 24.629 34.646 32.769
H 24.679 35.574 32.233
C 25.436 33.63  31.959
H 26.431 34.006 31.876
H 25.271 32.653 32.373
H 25.073 33.643 30.944
C 25.272 34.854 34.155
H 25.406 33.955 34.822
H 26.253 35.296 33.937
H 24.692 35.588 34.754
