137

Mg 21.979 32.147 31.65 
C 21.466 28.831 32.466
C 18.674 32.764 32.021
H 17.601 32.997 32.223
C 22.54  35.251 30.605
H 22.674 36.315 30.339
C 25.44  31.494 31.425
H 26.484 31.28  31.345
N 20.241 30.912 32.298
C 20.308 29.579 32.622
C 18.925 29.055 33.017
H 18.708 28.221 32.31 
C 17.987 30.225 32.658
H 17.345 30.45  33.545
C 18.99  31.42  32.368
C 17.007 30.015 31.499
H 17.524 30.085 30.551
H 16.445 29.074 31.684
H 16.187 30.705 31.55 
C 18.945 28.593 34.464
H 18.895 29.388 35.143
H 19.891 28.153 34.677
C 17.841 27.562 34.764
H 17.412 27.184 33.85 
H 18.173 26.554 35.16 
C 16.668 27.974 35.613
O 16.805 28.282 36.804
O 15.436 27.998 34.92 
N 20.776 33.703 31.373
C 19.455 33.809 31.554
C 19.004 35.217 31.253
C 20.165 35.878 30.855
C 21.276 34.956 30.927
C 17.61  35.721 31.242
H 17.255 36.028 30.349
H 16.928 34.874 31.415
H 17.47  36.474 31.972
C 20.341 37.259 30.402
H 21.207 37.752 30.799
C 19.667 37.914 29.443
H 18.859 37.466 28.791
H 19.952 38.909 29.162
N 23.752 33.233 31.094
C 23.736 34.559 30.721
C 25.113 34.967 30.453
C 25.954 33.869 30.746
C 25.061 32.785 31.097
C 25.498 36.337 30.081
H 26.468 36.193 29.679
H 24.786 36.754 29.331
H 25.527 36.956 30.964
C 27.464 33.789 30.544
H 27.814 32.918 29.942
H 27.873 34.758 30.131
C 28.206 33.621 31.888
H 27.789 32.804 32.43 
H 29.297 33.462 31.692
H 28.22  34.512 32.554
N 23.286 30.612 31.859
C 24.601 30.471 31.731
C 25.034 29.116 32.1  
C 23.755 28.453 32.246
C 22.745 29.396 32.119
C 26.435 28.57  32.129
H 26.956 28.903 31.274
H 26.921 28.895 33.038
H 26.445 27.544 32.225
C 23.179 27.183 32.651
O 23.768 26.123 32.842
C 21.702 27.346 32.703
H 21.372 27.003 33.666
C 21.146 26.493 31.601
O 21.313 26.687 30.383
O 20.022 25.79  32.166
C 19.25  25.059 31.128
H 18.678 25.739 30.546
H 19.98  24.477 30.487
H 18.652 24.282 31.555
C 14.523 28.797 35.697
H 14.842 29.573 36.444
H 13.948 28.043 36.331
C 13.446 29.359 34.791
H 12.868 28.586 34.174
C 13.173 30.664 34.379
C 13.951 31.851 34.895
H 13.141 32.468 35.435
H 14.763 31.451 35.586
H 14.335 32.546 34.158
C 11.888 30.926 33.66 
H 11.608 30.02  33.193
H 11.997 31.709 32.92 
C 10.757 31.268 34.66 
H 11.12  31.734 35.597
H 10.419 30.335 35.022
C  9.598 31.991 33.97 
H  8.627 31.441 34.054
H  9.665 32.11  32.86 
C  9.257 33.473 34.586
H  9.6   33.575 35.649
C  7.729 33.763 34.404
H  7.384 34.695 34.784
H  7.514 33.745 33.318
H  7.086 32.961 34.843
C 10.144 34.481 33.849
H  9.621 34.745 32.977
H 11.204 34.157 33.68 
C 10.369 35.837 34.676
H  9.773 35.738 35.623
H  9.956 36.584 33.997
C 11.831 35.985 35.033
H 12.273 35.009 35.26 
H 11.693 36.478 36.022
C 12.821 36.871 34.171
H 12.32  37.858 34.14 
C 12.955 36.392 32.755
H 13.477 35.445 32.751
H 11.977 36.3   32.322
H 13.438 37.063 32.037
C 14.245 37.076 34.783
H 14.609 37.767 34.054
H 14.937 36.204 34.608
C 14.328 37.533 36.242
H 14.771 36.72  36.831
H 13.315 37.697 36.585
C 15.331 38.683 36.544
H 15.452 39.26  35.669
H 16.302 38.325 36.752
C 14.844 39.502 37.749
H 14.96  38.753 38.549
C 13.369 40.08  37.659
H 12.671 39.294 37.64 
H 13.271 40.647 38.453
H 13.432 40.558 36.709
C 15.943 40.555 38.013
H 15.628 41.194 38.732
H 16.801 40.051 38.398
H 16.236 41.066 37.052
