137

Mg 28.408 32.189 39.817
C 26.853 29.156 39.741
C 25.381 33.659 39.4  
H 24.455 34.21  39.302
C 29.941 35.169 40.253
H 30.372 36.221 40.427
C 31.368 30.553 40.859
H 32.234 30.027 41.297
N 26.353 31.489 39.665
C 25.972 30.143 39.764
C 24.423 29.993 39.701
H 24.15  29.274 38.931
C 23.972 31.526 39.425
H 23.316 31.874 40.227
C 25.323 32.25  39.382
C 23.228 31.675 38.055
H 24.001 31.597 37.35 
H 22.51  30.812 37.922
H 22.781 32.658 37.935
C 23.774 29.573 40.921
H 24.026 30.259 41.72 
H 24.142 28.636 41.222
C 22.216 29.503 40.834
H 21.794 29.198 39.88 
H 21.928 28.633 41.434
C 21.345 30.571 41.451
O 21.311 30.784 42.674
O 20.678 31.278 40.49 
N 27.795 34.062 39.782
C 26.497 34.506 39.562
C 26.508 35.948 39.601
C 27.801 36.381 39.923
C 28.561 35.188 40.057
C 25.276 36.778 39.312
H 25.594 37.682 38.802
H 24.608 36.227 38.694
H 24.795 36.825 40.352
C 28.274 37.725 40.324
H 29.396 37.77  40.336
C 27.543 38.806 40.763
H 26.489 38.943 40.713
H 28.126 39.658 41.164
N 30.375 32.751 40.453
C 30.76  34.033 40.529
C 32.123 34.061 41.054
C 32.443 32.689 41.296
C 31.406 31.93  40.869
C 33.018 35.293 41.127
H 33.007 35.877 40.165
H 32.614 35.904 42.021
H 34.017 35.112 41.491
C 33.699 32.214 41.852
H 33.954 31.309 41.248
H 34.478 32.952 41.763
C 33.601 31.941 43.333
H 34.623 31.816 43.731
H 33.082 32.746 43.919
H 33.045 31.009 43.367
N 29.064 30.278 40.04 
C 30.231 29.728 40.48 
C 30.183 28.276 40.434
C 28.812 28.018 40.048
C 28.21  29.257 39.968
C 31.324 27.22  40.621
H 32.316 27.626 40.357
H 31.185 26.742 41.54 
H 31.023 26.45  39.961
C 27.876 26.985 39.579
O 27.907 25.758 39.443
C 26.586 27.732 39.485
H 25.924 27.357 40.261
C 26.098 27.497 38.05 
O 26.421 28.072 37.043
O 25.09  26.617 38.126
C 24.377 26.552 36.838
H 23.39  26.171 36.965
H 24.206 27.45  36.367
H 24.891 25.829 36.191
C 20.051 32.498 41.033
H 20.53  32.954 41.973
H 19.015 32.323 41.236
C 20.162 33.469 39.896
H 19.555 33.102 39.081
C 20.955 34.601 39.771
C 21.856 35.187 40.964
H 22.562 34.41  41.18 
H 22.415 36.078 40.595
H 21.125 35.475 41.696
C 20.824 35.42  38.488
H 20.217 34.765 37.775
H 21.791 35.536 38.044
C 20.122 36.834 38.614
H 20.704 37.588 38.056
H 19.993 37.097 39.624
C 18.651 36.829 38.055
H 18.071 36.317 38.888
H 18.6   36.164 37.203
C 18.039 38.192 37.642
H 18.138 38.774 38.542
C 16.494 38.079 37.56 
H 16.005 38.998 37.334
H 16.197 37.211 36.995
H 15.978 37.936 38.529
C 18.755 39.022 36.452
H 19.777 39.265 36.793
H 18.15  39.929 36.459
C 18.608 38.439 35.028
H 17.966 39.123 34.352
H 18.036 37.517 35.258
C 19.952 38.115 34.421
H 20.739 37.922 35.205
H 20.264 39.089 33.962
C 20.086 36.957 33.413
H 20.047 36.018 33.992
C 21.536 36.982 32.8  
H 21.57  37.705 32.036
H 22.364 37.095 33.558
H 21.782 36.007 32.231
C 18.866 36.784 32.436
H 19.021 37.607 31.694
H 17.901 36.932 32.935
C 18.885 35.314 31.876
H 19.781 34.73  32.164
H 18.774 35.233 30.799
C 17.779 34.381 32.437
H 16.891 34.92  32.931
H 18.219 33.786 33.274
C 17.107 33.489 31.35 
H 16.828 34.099 30.429
C 15.866 32.905 32.073
H 15.236 32.344 31.32 
H 16.123 32.172 32.772
H 15.175 33.515 32.626
C 17.966 32.33  30.899
H 17.447 31.564 30.305
H 18.876 32.555 30.366
H 18.262 31.91  31.879
