137

Mg 28.332 30.313 31.834
C 27.322 27.088 30.987
C 29.809 30.55  28.754
H 30.291 30.632 27.838
C 29.741 33.228 32.713
H 30.143 34.201 33.014
C 27.094 29.858 34.969
H 26.733 29.74  35.989
N 28.56  28.988 30.149
C 28.015 27.769 29.973
C 28.316 27.162 28.651
H 28.8   26.164 28.702
C 29.171 28.241 27.942
H 28.614 28.519 27.032
C 29.227 29.32  29.017
C 30.597 27.739 27.566
H 31.088 27.446 28.499
H 30.645 26.869 26.913
H 31.174 28.612 27.117
C 26.967 26.8   27.82 
H 26.567 27.728 27.377
H 26.137 26.438 28.436
C 27.209 25.946 26.573
H 27.309 26.666 25.742
H 28.177 25.402 26.643
C 26.246 24.764 26.28 
O 26.551 23.754 25.68 
O 25.029 24.933 26.892
N 29.48  31.673 30.849
C 30.041 31.621 29.598
C 30.851 32.798 29.377
C 30.81  33.573 30.516
C 29.946 32.837 31.391
C 31.724 33.006 28.199
H 31.948 34.054 28.094
H 32.556 32.347 28.466
H 31.151 32.719 27.298
C 31.551 34.752 30.934
H 30.928 35.542 31.401
C 32.948 34.772 30.918
H 33.525 33.966 30.374
H 33.543 35.603 31.338
N 28.409 31.41  33.615
C 29.025 32.612 33.726
C 28.859 33.103 35.154
C 28.074 32.162 35.773
C 27.751 31.137 34.762
C 29.58  34.281 35.816
H 30.159 33.969 36.666
H 30.194 34.844 35.153
H 28.87  34.984 36.254
C 27.639 32.232 37.181
H 28.118 31.53  37.793
H 27.985 33.112 37.674
C 26.126 32.051 37.381
H 25.797 32.914 37.971
H 25.627 32.038 36.371
H 25.972 31.099 37.921
N 27.363 28.854 32.762
C 26.945 28.779 34.078
C 26.336 27.508 34.316
C 26.492 26.835 33.172
C 27.081 27.634 32.24 
C 25.623 27.122 35.599
H 25.593 26.07  35.482
H 26.105 27.379 36.565
H 24.581 27.457 35.54 
C 26.249 25.558 32.508
O 25.685 24.5   32.882
C 26.803 25.656 31.086
H 25.992 25.586 30.389
C 27.752 24.553 30.912
O 28.593 24.238 31.734
O 27.596 23.988 29.638
C 28.635 23.018 29.365
H 28.285 22.142 29.893
H 28.755 22.799 28.316
H 29.656 23.355 29.652
C 24.067 23.792 26.867
H 24.566 22.939 27.173
H 23.59  23.734 25.929
C 22.854 24.168 27.717
H 22.233 24.931 27.258
C 22.519 23.72  28.912
C 23.301 22.78  29.854
H 22.913 21.775 30.014
H 24.316 22.631 29.497
H 23.559 23.418 30.752
C 21.302 24.164 29.674
H 20.97  25.161 29.274
H 21.542 24.277 30.731
C 20.104 23.242 29.531
H 19.756 23.015 30.497
H 20.442 22.271 29.167
C 18.996 23.837 28.6  
H 19.349 24.587 27.915
H 18.225 24.287 29.226
C 18.177 22.855 27.858
H 18.948 22.276 27.284
C 17.081 23.401 26.843
H 16.443 24.153 27.301
H 17.78  23.941 26.221
H 16.447 22.687 26.328
C 17.537 21.766 28.781
H 18.407 21.377 29.384
H 17.281 20.863 28.239
C 16.439 22.296 29.711
H 15.566 21.666 29.599
H 16.153 23.332 29.407
C 16.933 22.256 31.173
H 17.617 23.116 31.248
H 17.474 21.343 31.332
C 15.891 22.531 32.323
H 15.472 23.489 32.108
C 16.651 22.644 33.593
H 17.025 21.669 33.868
H 17.579 23.218 33.595
H 15.993 23.013 34.356
C 14.727 21.491 32.486
H 15.142 20.563 32.661
H 14.309 21.475 31.513
C 13.648 21.778 33.48 
H 12.766 21.428 32.989
H 13.408 22.841 33.62 
C 13.8   21.102 34.873
H 14.838 20.81  34.864
H 13.221 20.179 34.813
C 13.377 21.977 36.042
H 14.061 22.817 36.155
C 13.536 21.132 37.31 
H 13.352 21.915 38.111
H 12.777 20.335 37.279
H 14.559 20.654 37.371
C 11.923 22.503 36.025
H 11.347 21.627 35.641
H 11.602 22.639 37.057
H 11.824 23.392 35.409
