137

Mg 29.323 30.068 32.977
C 26.902 29.358 35.226
C 26.954 30.327 30.538
H 26.177 30.264 29.775
C 31.684 31.313 30.857
H 32.565 31.469 30.161
C 31.612 29.571 35.406
H 32.416 29.306 36.039
N 27.21  29.839 32.9  
C 26.388 29.57  33.935
C 24.94  29.491 33.549
H 24.671 28.463 33.701
C 24.972 29.697 32.032
H 24.491 30.6   31.674
C 26.482 29.954 31.809
C 24.479 28.547 31.139
H 24.122 28.815 30.211
H 25.285 27.904 30.991
H 23.673 28.005 31.61 
C 23.923 30.471 34.223
H 24.024 31.442 33.837
H 24.094 30.686 35.28 
C 22.525 30.018 34.128
H 22.341 29.117 33.449
H 22.145 29.782 35.118
C 21.621 31.042 33.467
O 21.121 32.085 33.949
O 21.15  30.545 32.278
N 29.313 30.813 30.976
C 28.262 30.771 30.159
C 28.613 31.366 28.83 
C 30.007 31.673 28.927
C 30.38  31.313 30.333
C 27.764 31.703 27.676
H 27.557 30.824 27.096
H 26.775 32.022 28.062
H 28.24  32.477 27.098
C 30.97  32.429 28.067
H 31.565 33.273 28.554
C 31.005 32.153 26.731
H 30.299 31.356 26.29 
H 31.726 32.685 26.044
N 31.349 30.586 33.134
C 32.107 31.08  32.164
C 33.44  31.041 32.645
C 33.435 30.593 34.041
C 32.073 30.221 34.226
C 34.672 31.459 31.786
H 34.756 32.539 31.726
H 35.545 31.043 32.288
H 34.591 30.98  30.876
C 34.563 30.557 35.047
H 34.728 29.483 35.401
H 35.51  30.902 34.576
C 34.303 31.452 36.306
H 33.172 31.412 36.384
H 34.763 31.141 37.233
H 34.585 32.474 36.033
N 29.313 29.674 34.924
C 30.338 29.416 35.813
C 29.885 29.006 37.027
C 28.54  28.878 36.82 
C 28.203 29.341 35.535
C 30.756 28.692 38.274
H 30.157 28.143 38.939
H 31.689 28.234 37.934
H 30.905 29.706 38.58 
C 27.314 28.528 37.494
O 27.168 28.021 38.564
C 26.217 28.893 36.517
H 25.616 29.654 36.856
C 25.471 27.663 36.348
O 25.866 26.559 35.987
O 24.091 27.911 36.388
C 23.221 26.876 35.908
H 23.485 25.817 36.173
H 22.271 26.988 36.369
H 23.052 26.977 34.896
C 19.999 31.148 31.694
H 20.165 32.123 31.278
H 19.131 31.179 32.373
C 19.552 30.225 30.619
H 19.25  29.218 30.934
C 19.382 30.528 29.311
C 19.871 31.812 28.597
H 20.346 31.509 27.679
H 18.935 32.332 28.312
H 20.519 32.541 29.203
C 18.841 29.515 28.36 
H 18.87  28.587 28.846
H 19.454 29.398 27.49 
C 17.349 29.557 27.864
H 16.946 30.539 28.089
H 16.827 28.801 28.404
C 17.178 29.309 26.345
H 18.1   28.861 25.99 
H 17.021 30.241 25.793
C 16.231 28.142 25.967
H 16.654 27.355 26.518
C 16.427 27.697 24.462
H 17.29  27.223 24.225
H 15.642 27.02  24.32 
H 16.449 28.589 23.825
C 14.768 28.298 26.4  
H 14.767 28.432 27.485
H 14.412 27.316 26.166
C 13.866 29.355 25.608
H 14.506 29.904 24.875
H 13.56  30.09  26.311
C 12.637 28.842 24.935
H 12.665 27.8   24.71 
H 12.602 29.351 23.961
C 11.355 28.965 25.776
H 11.315 29.966 26.278
C 11.429 27.913 26.872
H 11.635 26.904 26.369
H 12.168 28.212 27.578
H 10.482 27.86  27.37 
C 10.116 28.768 24.817
H 10.131 27.699 24.754
H 10.202 29.249 23.84 
C  8.82  29.107 25.502
H  8.738 28.975 26.596
H  7.96  28.615 24.958
C  8.551 30.599 25.413
H  9.345 31.137 24.834
H  8.69  31.059 26.401
C  7.172 31.018 24.808
H  7.158 30.42  23.933
C  6.98  32.511 24.435
H  7.706 32.743 23.631
H  5.924 32.849 24.27 
H  7.141 33.133 25.258
C  6.036 30.632 25.728
H  6.217 29.575 26.037
H  5.936 31.318 26.565
H  5.055 30.468 25.341
