137

Mg 30.529 29.143 36.093
C 28.36  29.64  38.713
C 27.803 28.887 33.951
H 26.864 28.857 33.422
C 32.61  29.369 33.417
H 33.286 29.511 32.615
C 33.154 29.375 38.276
H 33.967 29.361 38.926
N 28.369 29.308 36.297
C 27.696 29.481 37.47 
C 26.207 29.463 37.281
H 25.93  28.671 37.977
C 26.111 29.116 35.804
H 25.682 30.052 35.267
C 27.529 29.098 35.313
C 25.184 27.905 35.544
H 24.146 28.174 35.935
H 24.978 27.868 34.478
H 25.548 26.979 36.095
C 25.473 30.838 37.65 
H 25.497 31.48  36.748
H 25.96  31.379 38.496
C 23.975 30.745 38.077
H 23.72  29.743 38.237
H 23.719 31.23  39.02 
C 22.874 31.177 37.116
O 21.95  31.962 37.343
O 22.963 30.415 35.949
N 30.217 29.135 34.011
C 29.041 28.957 33.336
C 29.323 29.037 31.803
C 30.708 29.194 31.68 
C 31.227 29.236 33.037
C 28.274 29.031 30.732
H 27.419 28.892 31.296
H 28.089 29.982 30.254
H 28.274 28.171 29.979
C 31.551 29.396 30.476
H 32.658 29.417 30.589
C 31.109 29.862 29.269
H 30.011 29.874 29.004
H 31.774 30.052 28.442
N 32.483 29.328 35.87 
C 33.184 29.401 34.703
C 34.589 29.198 34.976
C 34.757 29.286 36.342
C 33.377 29.364 36.867
C 35.63  29.095 33.877
H 36.637 28.886 34.246
H 35.195 28.275 33.266
H 35.688 29.958 33.269
C 36.027 29.3   37.152
H 35.93  28.511 37.908
H 36.882 29.035 36.495
C 36.337 30.593 37.894
H 35.471 30.879 38.486
H 37.273 30.391 38.452
H 36.633 31.424 37.251
N 30.786 29.512 38.058
C 31.931 29.642 38.82 
C 31.562 29.987 40.201
C 30.17  29.789 40.16 
C 29.742 29.663 38.891
C 32.391 30.16  41.443
H 33.33  29.699 41.374
H 32.537 31.198 41.66 
H 31.753 29.799 42.296
C 29.035 29.771 41.045
O 28.987 29.819 42.279
C 27.785 29.67  40.141
H 27.131 30.478 40.285
C 27.034 28.479 40.618
O 27.307 27.303 40.477
O 25.862 28.762 41.165
C 25.218 27.703 41.941
H 24.14  27.907 42.101
H 25.361 26.703 41.58 
H 25.443 27.626 43.028
C 21.816 30.685 35.024
H 22.044 31.701 34.655
H 20.896 30.488 35.551
C 22.05  29.728 33.881
H 22.524 30.135 33.046
C 21.589 28.512 33.709
C 20.7   27.868 34.783
H 19.769 27.43  34.402
H 21.226 27.022 35.185
H 20.506 28.465 35.673
C 21.592 27.75  32.335
H 22.085 28.378 31.62 
H 20.559 27.538 31.946
C 22.243 26.404 32.373
H 21.787 25.779 33.166
H 23.33  26.462 32.441
C 22.119 25.643 31.046
H 23.198 25.502 30.777
H 21.702 26.268 30.282
C 21.356 24.238 31.08 
H 21.879 23.684 31.753
C 21.427 23.482 29.69 
H 22.481 23.314 29.476
H 20.928 22.53  29.81 
H 20.952 24.035 28.868
C 19.85  24.387 31.412
H 19.907 24.885 32.361
H 19.399 23.391 31.39 
C 18.985 25.272 30.524
H 19.392 25.267 29.565
H 18.914 26.318 30.902
C 17.569 24.713 30.332
H 17.194 24.079 31.166
H 17.406 24.165 29.415
C 16.441 25.793 30.312
H 16.767 26.475 29.508
C 16.297 26.634 31.697
H 15.588 26.251 32.412
H 17.136 26.747 32.304
H 16.122 27.665 31.427
C 15.07  25.221 29.817
H 14.735 24.623 30.65 
H 15.213 24.505 29.049
C 14.038 26.268 29.412
H 13.787 26.084 28.335
H 14.437 27.255 29.604
C 12.718 26.081 30.198
H 12.677 25.032 30.64 
H 11.866 25.935 29.519
C 12.468 26.954 31.414
H 13.435 27.104 31.814
C 11.567 26.196 32.415
H 12.057 25.322 32.839
H 11.399 26.914 33.194
H 10.611 25.837 32.107
C 11.801 28.295 31.006
H 11.656 28.854 31.921
H 12.522 28.854 30.536
H 10.836 28.094 30.598
