137

Mg 23.259 17.963 27.936
C 23.721 15.776 25.319
C 26.288 19.468 27.102
H 27.257 19.875 26.78 
C 23.132 19.885 30.743
H 23.121 20.413 31.656
C 20.726 16.073 29.044
H 19.86  15.469 29.413
N 24.717 17.716 26.388
C 24.72  16.758 25.419
C 25.905 16.965 24.355
H 26.396 16.013 24.15 
C 26.808 18.01  25.235
H 27.133 18.869 24.689
C 25.866 18.482 26.279
C 28.098 17.408 25.817
H 28.718 17.31  24.953
H 28.511 17.971 26.626
H 27.845 16.432 26.184
C 25.313 17.589 23.042
H 24.738 18.509 23.143
H 24.556 16.984 22.524
C 26.499 17.808 22.041
H 27.483 17.802 22.513
H 26.318 17.067 21.258
C 26.506 19.05  21.189
O 26.838 19.161 20.025
O 25.901 20.083 21.859
N 24.414 19.482 28.656
C 25.586 19.956 28.22 
C 26.194 21.058 29.08 
C 25.193 21.324 30.059
C 24.186 20.224 29.832
C 27.463 21.738 28.763
H 28.31  21.011 28.741
H 27.484 22.049 27.719
H 27.743 22.612 29.46 
C 25.162 22.358 31.19 
H 24.675 22.027 32.089
C 25.704 23.591 31.11 
H 26.103 23.959 30.199
H 25.612 24.298 31.95 
N 22.17  17.926 29.689
C 22.211 18.855 30.716
C 21.308 18.434 31.799
C 20.522 17.387 31.184
C 21.131 17.007 29.921
C 21.123 19.141 33.12 
H 20.286 18.77  33.601
H 22.034 19.092 33.796
H 20.976 20.159 32.911
C 19.273 16.759 31.806
H 19.454 15.63  31.875
H 19.165 17.108 32.859
C 17.971 16.981 31.016
H 18.152 16.373 30.132
H 17.119 16.578 31.473
H 17.782 17.896 30.658
N 22.36  16.283 27.34 
C 21.265 15.655 27.849
C 20.889 14.487 26.977
C 21.902 14.496 25.97 
C 22.682 15.598 26.277
C 19.745 13.613 27.15 
H 20.065 12.716 27.643
H 18.907 14.114 27.573
H 19.502 13.327 26.098
C 22.344 13.768 24.749
O 21.899 12.724 24.201
C 23.516 14.697 24.213
H 23.226 15.164 23.276
C 24.679 13.734 24.105
O 25.248 13.183 25.055
O 25.056 13.414 22.819
C 26.35  12.568 22.77 
H 26.054 11.567 23.094
H 26.721 12.416 21.735
H 27.284 12.939 23.307
C 25.604 21.258 21.018
H 24.923 20.846 20.186
H 26.451 21.785 20.78 
C 24.893 22.272 21.87 
H 25.2   22.168 22.953
C 23.845 23.024 21.425
C 23.04  22.936 20.097
H 23.007 23.901 19.697
H 23.723 22.38  19.384
H 22.026 22.455 20.265
C 23.217 24.01  22.405
H 23.941 23.922 23.302
H 22.243 23.559 22.596
C 23.107 25.473 21.93 
H 22.061 25.605 21.833
H 23.542 25.662 20.951
C 23.686 26.473 22.926
H 23.807 26.011 23.882
H 22.992 27.344 23.02 
C 25.146 27.1   22.5  
H 25.059 27.725 21.593
C 25.988 25.873 22.177
H 26.056 25.259 23.085
H 25.614 25.284 21.342
H 26.94  26.229 21.883
C 25.734 28.024 23.621
H 26.755 28.231 23.359
H 25.796 27.434 24.547
C 25.058 29.418 23.773
H 24.171 29.498 23.053
H 25.679 30.239 23.557
C 24.62  29.739 25.233
H 25.153 30.643 25.562
H 25.027 28.927 25.97 
C 23.109 29.978 25.459
H 22.497 29.117 25.196
C 22.653 31.345 24.936
H 22.765 31.325 23.87 
H 21.555 31.508 25.118
H 23.297 32.144 25.337
C 22.977 30.048 26.989
H 23.375 30.957 27.426
H 23.608 29.325 27.408
C 21.512 29.973 27.655
H 20.679 30.051 26.954
H 21.374 30.796 28.348
C 21.347 28.636 28.383
H 22.208 27.933 28.504
H 20.554 28.066 27.922
C 20.793 28.659 29.881
H 21.559 29.148 30.503
C 20.826 27.175 30.27 
H 20.421 27.13  31.253
H 20.142 26.711 29.56 
H 21.8   26.708 30.201
C 19.364 29.223 30.022
H 18.521 28.53  29.788
H 19.141 29.423 31.079
H 19.144 30.052 29.404
