137

Mg 22.948 16.592 30.03 
C 25.589 15.336 27.989
C 24.2   19.738 29.444
H 24.545 20.803 29.382
C 20.771 17.829 32.137
H 20.172 18.254 32.934
C 22.429 13.492 31.268
H 22.295 12.523 31.817
N 24.571 17.441 28.687
C 25.529 16.742 27.96 
C 26.274 17.732 27.02 
H 27.328 17.456 27.254
C 25.907 19.061 27.679
H 25.385 19.716 26.966
C 24.803 18.769 28.62 
C 27.113 19.952 28.198
H 27.927 20.04  27.438
H 26.802 20.938 28.651
H 27.487 19.376 29.03 
C 26.019 17.674 25.497
H 25.061 18.04  25.264
H 26.123 16.68  25.147
C 27.03  18.508 24.663
H 27.771 19.035 25.23 
H 27.459 17.866 23.9  
C 26.497 19.628 23.827
O 26.129 19.619 22.647
O 26.499 20.759 24.614
N 22.345 18.407 30.496
C 23.024 19.584 30.247
C 22.36  20.721 30.902
C 21.25  20.175 31.54 
C 21.397 18.748 31.401
C 22.728 22.159 30.651
H 22.652 22.332 29.544
H 22.031 22.806 31.123
H 23.734 22.357 31.079
C 20.261 20.872 32.434
H 19.265 20.673 32.236
C 20.589 21.819 33.338
H 21.638 22.174 33.602
H 19.752 22.24  33.948
N 21.642 15.734 31.285
C 20.867 16.459 32.112
C 20.166 15.636 33.058
C 20.512 14.31  32.735
C 21.568 14.458 31.692
C 19.118 16.192 33.957
H 19.723 16.886 34.578
H 18.308 16.676 33.439
H 18.894 15.338 34.586
C 20.015 13.07  33.348
H 20.84  12.325 33.434
H 19.699 13.346 34.373
C 18.929 12.507 32.502
H 19.11  12.661 31.441
H 18.773 11.467 32.775
H 18.037 13.09  32.714
N 23.706 14.787 29.72 
C 23.455 13.573 30.339
C 24.323 12.58  29.843
C 25.164 13.217 28.884
C 24.791 14.603 28.936
C 24.377 11.122 30.196
H 25.185 10.888 30.983
H 23.425 10.68  30.457
H 24.671 10.649 29.245
C 26.186 12.973 27.923
O 26.813 11.914 27.792
C 26.537 14.335 27.273
H 26.321 14.21  26.228
C 27.971 14.509 27.502
O 28.451 15.337 28.31 
O 28.765 13.628 26.683
C 30.158 13.623 27.149
H 30.763 13.012 26.411
H 30.567 14.591 27.391
H 30.147 13.158 28.064
C 26.092 22.071 24.028
H 25.596 21.929 23.124
H 27.036 22.631 23.78 
C 25.22  22.822 25.069
H 25.815 23.319 25.851
C 23.87  22.922 25.118
C 22.879 22.127 24.19 
H 23.416 21.546 23.478
H 22.285 21.373 24.733
H 22.2   22.784 23.627
C 23.301 23.812 26.267
H 24.028 24.186 26.949
H 22.749 23.139 26.819
C 22.535 25.08  25.803
H 22.638 25.016 24.683
H 22.971 25.933 26.197
C 21.073 24.997 26.168
H 20.835 23.956 26.212
H 20.49  25.364 25.313
C 20.594 25.766 27.471
H 20.758 26.832 27.24 
C 21.406 25.343 28.716
H 20.981 24.349 28.986
H 22.498 25.265 28.49 
H 21.25  25.864 29.646
C 19.052 25.571 27.78 
H 18.907 26.247 28.649
H 18.86  24.527 28.064
C 18.123 26.103 26.708
H 17.66  25.166 26.256
H 18.656 26.608 25.912
C 16.902 26.99  27.179
H 16.762 26.926 28.246
H 16.023 26.581 26.673
C 16.866 28.487 26.926
H 17.373 28.639 25.946
C 17.681 29.388 27.987
H 18.778 29.309 27.851
H 17.454 30.445 27.873
H 17.32  29.135 29.002
C 15.44  29.014 26.78 
H 14.964 29.068 27.751
H 14.856 28.311 26.25 
C 15.364 30.432 26.111
H 16.201 30.665 25.498
H 15.167 31.137 26.822
C 14.192 30.553 25.115
H 13.619 29.602 25.11 
H 14.399 30.891 24.137
C 13.08  31.647 25.606
H 12.964 31.623 26.681
C 11.668 31.124 25.151
H 10.988 31.791 25.698
H 11.435 31.109 24.106
H 11.584 30.211 25.66 
C 13.296 33.097 25.195
H 13.529 33.285 24.131
H 12.337 33.535 25.494
H 14.067 33.473 25.965
