137

Mg 35.894 30.902 34.13 
C 33.036 29.145 33.562
C 37.189 29.535 31.227
H 37.558 29.104 30.292
C 38.745 32.633 34.624
H 39.577 33.283 34.629
C 34.39  32.259 36.912
H 33.992 32.77  37.822
N 35.206 29.581 32.498
C 33.965 29.004 32.481
C 33.798 28.134 31.229
H 33.823 27.149 31.639
C 35.133 28.252 30.565
H 34.971 28.823 29.623
C 35.938 29.159 31.449
C 35.811 26.852 30.179
H 36.855 27.032 29.941
H 35.865 26.235 31.05 
H 35.397 26.364 29.327
C 32.456 28.466 30.354
H 32.683 29.46  29.922
H 31.638 28.757 31.035
C 32.092 27.582 29.229
H 32.427 27.971 28.285
H 32.506 26.642 29.371
C 30.633 27.163 29.098
O 30.11  26.13  29.493
O 29.958 28.208 28.65 
N 37.684 31.014 33.126
C 38.008 30.427 31.911
C 39.264 30.95  31.422
C 39.815 31.662 32.493
C 38.753 31.805 33.52 
C 39.83  30.699 29.982
H 40.872 31.09  29.985
H 39.843 29.66  29.763
H 39.158 31.12  29.242
C 41.131 32.337 32.482
H 41.584 32.65  31.561
C 41.916 32.42  33.609
H 41.664 32.128 34.58 
H 42.813 32.971 33.603
N 36.447 32.325 35.514
C 37.739 32.897 35.562
C 37.809 33.794 36.71 
C 36.555 33.726 37.347
C 35.74  32.78  36.609
C 38.985 34.693 37.047
H 38.593 35.714 37.219
H 39.657 34.269 37.819
H 39.654 34.757 36.205
C 36.096 34.398 38.656
H 35.933 33.674 39.457
H 36.968 34.984 39.066
C 35.047 35.428 38.438
H 34.613 35.817 39.419
H 35.418 36.224 37.816
H 34.224 34.982 37.802
N 34.149 30.744 35.159
C 33.676 31.252 36.322
C 32.396 30.648 36.744
C 32.093 29.83  35.65 
C 33.167 29.961 34.704
C 31.623 30.839 37.994
H 32.116 30.195 38.732
H 31.683 31.877 38.239
H 30.619 30.487 37.763
C 31.075 28.963 35.069
O 30.007 28.616 35.556
C 31.645 28.452 33.718
H 31.085 28.619 32.878
C 31.749 27.014 33.867
O 32.659 26.372 34.436
O 30.724 26.398 33.198
C 30.984 25.06  32.624
H 30.15  24.852 31.954
H 31.905 24.919 32.081
H 30.989 24.343 33.498
C 28.566 27.867 28.286
H 27.923 27.692 29.141
H 28.536 27.025 27.637
C 27.977 29.055 27.409
H 28.362 29.136 26.369
C 27.032 29.948 27.724
C 26.4   30.089 29.059
H 27.05  30.778 29.637
H 25.459 30.591 29.047
H 26.368 29.091 29.551
C 26.513 30.91  26.55 
H 26.926 30.611 25.567
H 26.978 31.877 26.831
C 24.999 31.067 26.486
H 24.476 30.267 27.022
H 24.759 31.116 25.46 
C 24.518 32.4   27.047
H 25.358 32.851 27.556
H 23.758 32.02  27.721
C 23.919 33.403 26.055
H 23.087 33.022 25.409
C 25.081 33.971 25.088
H 25.871 34.487 25.628
H 25.443 33.177 24.561
H 24.642 34.589 24.284
C 23.241 34.559 26.819
H 23.205 35.396 26.102
H 23.73  34.812 27.781
C 21.702 34.368 27.204
H 21.365 33.306 26.993
H 20.825 34.916 26.676
C 21.395 34.589 28.709
H 20.398 35.022 28.845
H 22.064 35.363 29.097
C 21.58  33.252 29.59 
H 22.539 32.852 29.365
C 20.381 32.173 29.433
H 20.321 31.559 28.494
H 20.42  31.461 30.232
H 19.45  32.765 29.578
C 21.757 33.603 31.192
H 21.82  32.684 31.772
H 20.786 33.954 31.386
C 22.76  34.65  31.583
H 22.163 35.536 31.718
H 23.343 34.782 30.705
C 23.765 34.195 32.669
H 23.437 33.295 33.154
H 23.823 34.957 33.464
C 25.222 34.039 32.182
H 25.58  35.053 31.816
C 25.371 32.952 31.064
H 26.388 32.799 31.006
H 24.785 32.104 31.358
H 25.051 33.25  30.055
C 26.041 33.609 33.402
H 26.146 32.551 33.534
H 27.077 33.836 33.291
H 25.602 34.001 34.262
