137

Mg 35.961 33.449 35.624
C 33.449 31.356 34.509
C 37.856 32.607 32.889
H 38.365 32.382 31.887
C 38.438 35.443 36.755
H 39.294 36.1   37.069
C 34.243 34.009 38.53 
H 33.601 34.314 39.337
N 35.723 32.108 33.932
C 34.588 31.309 33.623
C 34.769 30.709 32.227
H 34.451 29.681 32.291
C 36.263 30.905 31.927
H 36.373 31.25  30.884
C 36.644 31.958 33.01 
C 37.031 29.579 31.978
H 38.068 29.739 31.662
H 36.992 29.14  32.984
H 36.461 28.805 31.406
C 33.813 31.319 31.198
H 33.907 32.415 31.154
H 32.754 31.315 31.502
C 33.907 30.654 29.755
H 34.423 31.333 29.125
H 34.468 29.781 29.927
C 32.586 30.192 29.016
O 32.141 29.028 29.116
O 32.037 31.247 28.313
N 37.812 33.957 34.879
C 38.416 33.533 33.743
C 39.71  34.157 33.582
C 39.92  34.904 34.775
C 38.676 34.793 35.548
C 40.668 33.788 32.419
H 41.065 34.742 32.106
H 41.492 33.11  32.74 
H 40.297 33.201 31.541
C 41.057 35.798 35.146
H 40.775 36.764 35.634
C 42.315 35.44  34.912
H 42.699 34.53  34.425
H 43.061 36.228 35.189
N 36.275 34.668 37.365
C 37.392 35.384 37.667
C 37.268 36.007 38.966
C 35.996 35.622 39.414
C 35.436 34.756 38.412
C 38.333 36.967 39.658
H 38.991 37.359 38.939
H 37.777 37.837 40.037
H 38.768 36.439 40.434
C 35.316 36.023 40.772
H 34.825 35.133 41.186
H 36.029 36.522 41.409
C 34.24  37.079 40.549
H 33.973 37.529 41.496
H 34.533 37.844 39.789
H 33.402 36.479 40.247
N 34.349 32.732 36.418
C 33.74  33.077 37.605
C 32.503 32.388 37.78 
C 32.375 31.664 36.534
C 33.499 31.943 35.733
C 31.705 32.382 38.993
H 31.09  31.524 38.901
H 32.306 32.287 39.954
H 31.164 33.371 39.039
C 31.446 30.758 35.775
O 30.384 30.296 36.078
C 31.999 30.752 34.322
H 31.485 31.477 33.735
C 31.95  29.355 33.962
O 32.533 28.403 34.466
O 31.364 29.332 32.778
C 31.402 28.02  32.101
H 30.675 28.041 31.281
H 32.429 27.848 31.789
H 31.123 27.143 32.699
C 30.684 30.886 28.11 
H 30.105 30.628 29.035
H 30.651 29.977 27.441
C 30.058 32.066 27.494
H 30.171 32.205 26.441
C 29.265 33.105 27.913
C 28.765 33.276 29.334
H 27.7   32.993 29.397
H 29.265 32.574 29.973
H 28.917 34.241 29.702
C 28.92  34.201 26.994
H 29.779 34.395 26.293
H 28.825 35.035 27.615
C 27.494 34.09  26.259
H 27.102 33.108 26.483
H 27.692 34.182 25.106
C 26.34  34.989 26.761
H 26.506 35.929 26.285
H 26.549 35.144 27.848
C 24.903 34.361 26.646
H 24.714 33.326 27.093
C 24.488 34.176 25.135
H 24.483 35.236 24.712
H 25.237 33.429 24.707
H 23.518 33.68  25.148
C 23.79  35.249 27.349
H 23.548 36.112 26.729
H 24.154 35.506 28.328
C 22.404 34.535 27.522
H 22.651 33.612 28.069
H 21.974 34.319 26.537
C 21.354 35.193 28.467
H 20.391 35.064 28.068
H 21.615 36.212 28.585
C 21.093 34.478 29.843
H 22.02  34.315 30.36 
C 20.531 33.073 29.714
H 20.28  32.708 30.699
H 19.613 33.053 29.216
H 21.189 32.33  29.242
C 20.224 35.305 30.862
H 19.171 35.406 30.522
H 20.684 36.293 30.781
C 20.239 34.897 32.347
H 20.608 35.682 32.976
H 20.962 34.09  32.45 
C 18.836 34.451 32.651
H 18.815 33.814 33.52 
H 18.564 33.72  31.839
C 17.703 35.513 32.906
H 17.522 36.139 32.061
C 17.991 36.367 34.121
H 17.191 37.111 34.325
H 18.121 35.799 35.03 
H 18.912 36.946 34.007
C 16.304 34.797 33.218
H 15.638 35.583 33.494
H 15.969 34.344 32.321
H 16.505 34.138 34.041
