137

Mg 26.007 29.241 38.104
C 25.069 26.362 39.884
C 26.117 27.404 35.259
H 26.197 26.784 34.351
C 27.129 31.932 36.496
H 27.343 32.788 35.925
C 25.946 30.989 41.039
H 26.004 31.491 42.014
N 25.587 27.122 37.595
C 25.256 26.109 38.502
C 24.878 24.873 37.75 
H 25.522 24.206 38.237
C 25.308 25.129 36.233
H 24.446 25.145 35.49 
C 25.715 26.622 36.355
C 26.482 24.287 35.656
H 27.475 24.415 36.207
H 26.201 23.222 35.789
H 26.643 24.459 34.598
C 23.357 24.553 37.865
H 22.86  25.42  37.494
H 23.097 24.573 38.927
C 22.909 23.148 37.334
H 23.832 22.711 36.978
H 22.529 22.5   38.161
C 21.855 23.252 36.12 
O 21.336 24.248 35.703
O 21.661 22.023 35.606
N 26.361 29.664 36.175
C 26.36  28.764 35.092
C 26.652 29.443 33.884
C 26.945 30.75  34.227
C 26.844 30.818 35.712
C 26.635 28.921 32.512
H 26.403 27.805 32.544
H 25.818 29.47  32.04 
H 27.528 29.111 31.89 
C 27.199 31.942 33.317
H 26.771 32.886 33.631
C 27.943 31.921 32.238
H 28.564 31.064 31.981
H 28.176 32.85  31.687
N 26.482 31.15  38.719
C 26.953 32.106 37.883
C 27.137 33.332 38.661
C 26.719 33.056 39.992
C 26.403 31.719 39.947
C 27.916 34.497 38.122
H 27.439 35.424 38.482
H 28.922 34.44  38.471
H 28.056 34.583 37.026
C 26.777 34.023 41.193
H 27.068 33.488 42.08 
H 27.555 34.757 41.158
C 25.45  34.779 41.485
H 24.735 34.014 41.716
H 25.569 35.54  42.336
H 24.995 35.177 40.554
N 25.508 28.832 40.078
C 25.491 29.67  41.173
C 25.085 28.981 42.353
C 24.951 27.648 41.889
C 25.189 27.627 40.501
C 25.066 29.607 43.831
H 25.993 29.978 44.353
H 24.269 30.405 43.909
H 24.674 28.786 44.433
C 24.719 26.242 42.253
O 24.367 25.823 43.344
C 24.808 25.422 41.008
H 23.949 24.776 41.089
C 26.09  24.687 41.342
O 27.179 25.224 41.381
O 25.837 23.376 41.424
C 27.025 22.55  41.508
H 26.795 21.714 42.139
H 27.285 22.207 40.469
H 27.901 23.046 41.886
C 20.536 21.922 34.613
H 20.575 22.655 33.784
H 19.599 21.969 35.147
C 20.538 20.538 34.137
H 20.41  19.727 34.831
C 20.884 20.106 32.905
C 21.283 21.088 31.791
H 20.404 21.71  31.775
H 22.239 21.545 32.174
H 21.423 20.595 30.817
C 21.065 18.625 32.599
H 21.316 18.057 33.459
H 21.837 18.54  31.85 
C 19.674 18.084 32.177
H 18.967 18.622 32.745
H 19.576 17.031 32.418
C 19.472 18.248 30.681
H 20.466 18.095 30.294
H 18.999 19.171 30.444
C 18.711 17.107 29.919
H 19.307 16.209 30.016
C 18.794 17.455 28.41 
H 18.272 18.395 28.213
H 19.81  17.559 28.009
H 18.264 16.677 27.872
C 17.238 17.02  30.473
H 17.14  17.012 31.567
H 16.976 16.061 29.96 
C 16.221 18.089 29.963
H 16.792 18.931 29.556
H 15.676 18.327 30.854
C 15.181 17.569 29.004
H 14.276 17.522 29.525
H 15.46  16.577 28.733
C 14.728 18.387 27.801
H 15.599 18.619 27.257
C 14.002 19.67  28.21 
H 14.144 20.365 27.378
H 12.937 19.553 28.172
H 14.278 20.114 29.132
C 13.826 17.498 26.849
H 13.356 18.159 26.093
H 13.03  17.015 27.493
C 14.607 16.392 26.088
H 15.698 16.577 26.179
H 14.223 16.346 25.064
C 14.218 14.93  26.601
H 13.766 14.979 27.633
H 15.175 14.48  26.747
C 13.234 14.086 25.776
H 13.437 14.246 24.707
C 11.845 14.47  26.036
H 11.677 15.461 25.618
H 11.223 13.716 25.527
H 11.504 14.493 27.056
C 13.276 12.563 26.206
H 14.287 12.297 26.021
H 13.056 12.498 27.275
H 12.538 12.012 25.611
