137

Mg 23.031 20.281 27.976
C 23.251 17.964 25.363
C 26.006 21.619 26.925
H 26.962 22.001 26.502
C 22.947 22.422 30.613
H 22.881 23.185 31.415
C 20.28  18.648 29.18 
H 19.397 18.06  29.521
N 24.416 19.848 26.39 
C 24.296 18.946 25.388
C 25.436 18.981 24.276
H 26.024 18.05  24.153
C 26.339 20.041 24.981
H 26.538 20.923 24.406
C 25.537 20.537 26.213
C 27.813 19.573 25.294
H 27.739 18.584 25.665
H 28.307 19.77  24.328
H 28.139 20.273 26.06 
C 24.861 19.363 22.899
H 24.163 20.21  22.849
H 24.14  18.539 22.782
C 25.85  19.558 21.72 
H 26.91  19.569 22.077
H 25.772 18.613 21.094
C 25.633 20.737 20.727
O 25.483 20.54  19.536
O 25.441 21.933 21.377
N 24.194 21.832 28.598
C 25.458 22.213 28.073
C 25.941 23.343 28.778
C 25.017 23.578 29.8  
C 23.968 22.635 29.702
C 27.176 24.19  28.404
H 28.06  23.662 28.758
H 27.19  24.445 27.304
H 27.058 25.136 28.818
C 25.048 24.61  30.857
H 24.064 24.933 31.271
C 26.18  25.05  31.443
H 27.156 24.728 31.199
H 26.12  25.678 32.357
N 21.736 20.491 29.669
C 21.859 21.524 30.612
C 20.756 21.45  31.538
C 20.022 20.318 31.122
C 20.679 19.755 29.916
C 20.588 22.325 32.774
H 19.68  22.856 32.479
H 20.462 21.676 33.673
H 21.508 22.93  33.007
C 18.803 19.717 31.844
H 19.103 18.695 32.274
H 18.578 20.236 32.763
C 17.514 19.695 31.025
H 17.581 18.915 30.26 
H 16.726 19.375 31.661
H 17.3   20.654 30.589
N 21.905 18.85  27.386
C 20.784 18.231 27.93 
C 20.313 17.13  27.083
C 21.233 17.041 26.106
C 22.223 18.044 26.283
C 19.188 16.199 27.244
H 19.443 15.217 26.756
H 19.04  15.999 28.346
H 18.376 16.488 26.644
C 21.527 16.336 24.896
O 20.843 15.488 24.35 
C 22.893 16.814 24.378
H 22.76  17.088 23.357
C 23.88  15.689 24.503
O 24.616 15.495 25.4  
O 23.947 14.902 23.354
C 25.085 14.043 23.237
H 25.217 13.409 24.164
H 24.952 13.419 22.313
H 26.014 14.694 23.154
C 25.058 22.986 20.417
H 24.225 22.535 19.763
H 25.868 23.433 19.948
C 24.52  24.129 21.322
H 25.107 24.365 22.242
C 23.458 24.953 21.1  
C 22.859 25.055 19.778
H 23.359 24.362 19.121
H 21.805 25.021 19.824
H 23.078 26.04  19.381
C 23.126 26.057 22.153
H 23.654 25.779 23.058
H 22.052 25.968 22.224
C 23.321 27.528 21.811
H 22.371 28.019 21.675
H 23.8   27.512 20.836
C 24.162 28.276 22.872
H 24.47  27.667 23.716
H 23.629 29.101 23.293
C 25.534 28.887 22.295
H 25.356 29.084 21.23 
C 26.632 27.848 22.438
H 26.763 27.416 23.4  
H 26.473 27.038 21.742
H 27.638 28.348 22.271
C 25.925 30.193 23.111
H 26.778 30.622 22.668
H 26.177 29.869 24.112
C 24.96  31.376 23.13 
H 24.126 31.116 22.51 
H 25.445 32.275 22.763
C 24.256 31.557 24.493
H 24.69  32.421 24.901
H 24.479 30.692 25.104
C 22.679 31.922 24.354
H 22.206 31.179 23.767
C 22.512 33.291 23.67 
H 22.899 33.176 22.671
H 21.452 33.665 23.649
H 23.042 34.074 24.165
C 21.884 31.92  25.666
H 22.386 32.731 26.202
H 22.081 31.023 26.19 
C 20.34  32.144 25.61 
H 20.015 32.425 24.542
H 20.091 32.943 26.309
C 19.495 30.862 26.047
H 20.123 29.969 26.09 
H 18.764 30.66  25.325
C 18.906 31.06  27.517
H 19.717 31.364 28.223
C 18.461 29.693 28.166
H 17.883 29.818 29.086
H 17.898 29.176 27.454
H 19.347 29.093 28.292
C 17.809 32.121 27.516
H 17.348 32.18  26.553
H 17.04  31.891 28.214
H 18.273 33.092 27.758
