137

Mg 33.408 30.091 35.255
C 30.614 28.344 34.333
C 35.138 28.795 32.646
H 35.736 28.247 31.924
C 36.055 31.997 36.117
H 36.904 32.603 36.277
C 31.655 31.322 38.056
H 31.095 31.732 39.009
N 32.982 28.618 33.78 
C 31.74  28.107 33.518
C 31.71  27.138 32.334
H 31.641 26.112 32.605
C 33.155 27.311 31.766
H 33.165 27.74  30.766
C 33.801 28.376 32.74 
C 33.879 26.043 31.74 
H 34.931 26.122 31.403
H 33.847 25.596 32.669
H 33.294 25.414 31.061
C 30.613 27.438 31.292
H 30.583 28.53  31.023
H 29.614 27.365 31.733
C 30.726 26.622 30.   
H 31.247 27.235 29.292
H 31.226 25.692 30.294
C 29.371 26.305 29.355
O 29.006 25.147 29.159
O 28.708 27.447 28.944
N 35.248 30.304 34.516
C 35.793 29.697 33.452
C 37.163 30.024 33.36 
C 37.406 30.98  34.25 
C 36.232 31.137 35.027
C 38.095 29.629 32.293
H 37.57  28.999 31.594
H 38.587 30.39  31.694
H 38.872 29.091 32.784
C 38.698 31.693 34.449
H 39.267 32.015 33.532
C 39.162 31.83  35.69 
H 38.601 31.497 36.614
H 40.171 32.205 35.945
N 33.737 31.58  36.756
C 34.94  32.289 36.895
C 34.802 33.231 38.041
C 33.556 33.025 38.524
C 32.903 31.937 37.734
C 35.874 33.981 38.735
H 36.321 33.415 39.604
H 36.756 34.184 38.106
H 35.561 34.926 39.134
C 32.965 33.586 39.734
H 32.575 32.738 40.316
H 33.718 34.076 40.387
C 31.862 34.654 39.556
H 31.012 34.281 38.992
H 31.459 34.912 40.497
H 32.383 35.521 39.035
N 31.606 29.846 36.126
C 31.016 30.338 37.251
C 29.617 29.833 37.347
C 29.458 29.033 36.218
C 30.642 29.083 35.517
C 28.636 30.098 38.487
H 28.865 30.997 39.041
H 27.624 30.048 38.094
H 28.718 29.333 39.229
C 28.531 28.181 35.538
O 27.455 27.722 35.9  
C 29.229 27.712 34.277
H 28.588 28.213 33.535
C 29.093 26.206 34.246
O 29.746 25.439 34.954
O 28.116 25.792 33.335
C 27.927 24.378 33.335
H 27.732 23.939 34.262
H 27.229 24.23  32.5  
H 28.916 24.096 33.001
C 27.513 27.149 28.151
H 26.819 26.666 28.751
H 27.769 26.495 27.307
C 26.93  28.436 27.468
H 27.672 28.962 26.853
C 25.751 29.019 27.505
C 24.589 28.408 28.101
H 24.748 27.54  28.754
H 24.205 29.166 28.756
H 23.906 28.213 27.348
C 25.584 30.328 26.781
H 26.581 30.703 26.646
H 25.079 31.089 27.378
C 24.95  30.065 25.387
H 24.79  28.987 25.253
H 25.697 30.35  24.701
C 23.627 30.814 25.181
H 23.828 31.595 24.478
H 23.406 31.32  26.117
C 22.29  30.087 24.706
H 21.932 29.386 25.464
C 22.546 29.384 23.415
H 21.643 28.898 22.968
H 22.952 30.062 22.698
H 23.314 28.624 23.567
C 21.258 31.126 24.524
H 20.441 30.782 23.897
H 21.801 31.842 23.829
C 20.641 31.637 25.803
H 20.937 31.065 26.699
H 19.526 31.493 25.584
C 20.915 33.125 25.947
H 20.244 33.667 25.278
H 21.915 33.306 25.461
C 20.717 33.708 27.443
H 20.854 33.03  28.243
C 19.19  34.091 27.597
H 18.567 33.17  27.479
H 19.205 34.523 28.581
H 18.987 34.814 26.813
C 21.801 34.88  27.812
H 21.48  35.238 28.787
H 21.754 35.759 27.232
C 23.288 34.423 27.907
H 23.704 34.457 26.887
H 23.311 33.416 28.34 
C 24.068 35.475 28.712
H 23.291 36.096 29.128
H 24.66  36.105 28.052
C 24.986 34.944 29.834
H 25.75  34.219 29.473
C 24.173 34.315 30.938
H 23.704 35.126 31.524
H 23.441 33.532 30.575
H 24.923 33.854 31.55 
C 25.901 36.051 30.403
H 26.434 35.669 31.227
H 26.552 36.257 29.581
H 25.293 36.868 30.717
