137

Mg 22.385 18.104 30.95 
C 25.318 16.857 29.792
C 23.773 21.214 30.65 
H 24.367 22.177 30.692
C 19.524 19.464 32.143
H 18.673 19.727 32.729
C 21.107 14.892 31.25 
H 20.752 13.858 31.35 
N 24.191 18.915 30.116
C 25.265 18.234 29.649
C 26.265 19.102 28.947
H 27.266 18.754 29.3  
C 25.983 20.435 29.695
H 26.001 21.315 29.048
C 24.504 20.197 30.122
C 27.008 20.623 30.822
H 28.088 20.676 30.547
H 26.662 21.542 31.243
H 26.799 19.76  31.458
C 26.191 19.201 27.382
H 25.198 19.607 27.173
H 26.167 18.131 27.044
C 27.175 20.124 26.667
H 27.757 20.502 27.511
H 27.843 19.564 26.08 
C 26.601 21.207 25.74 
O 26.894 21.345 24.552
O 25.63 22.   26.36
N 21.67  20.069 31.27 
C 22.465 21.228 31.183
C 21.729 22.41  31.619
C 20.47  21.848 32.126
C 20.483 20.375 31.795
C 22.159 23.81  31.597
H 23.263 23.75  31.528
H 21.601 24.331 30.811
H 21.864 24.182 32.57 
C 19.244 22.466 32.704
H 18.319 21.873 32.608
C 19.091 23.634 33.402
H 19.866 24.341 33.549
H 18.066 23.892 33.723
N 20.579 17.342 31.495
C 19.542 18.084 31.984
C 18.428 17.216 32.332
C 18.875 15.885 32.022
C 20.231 15.986 31.498
C 17.165 17.566 32.938
H 16.729 16.778 33.536
H 17.322 18.425 33.592
H 16.462 17.712 32.07 
C 18.163 14.539 32.233
H 18.663 13.989 33.011
H 17.192 14.748 32.578
C 18.014 13.722 30.956
H 17.963 12.677 31.311
H 17.042 13.911 30.513
H 18.742 13.893 30.169
N 23.031 16.198 30.544
C 22.475 14.95  30.785
C 23.477 13.899 30.553
C 24.559 14.64  30.06 
C 24.264 16.005 30.172
C 23.379 12.456 30.788
H 22.317 12.115 30.878
H 23.878 11.896 29.995
H 23.951 12.121 31.63 
C 25.914 14.502 29.554
O 26.528 13.519 29.349
C 26.508 15.9   29.59 
H 27.088 16.136 28.684
C 27.394 15.906 30.789
O 26.974 15.791 31.915
O 28.75  16.318 30.549
C 29.535 16.737 31.697
H 29.975 15.925 32.291
H 30.413 17.276 31.258
H 29.033 17.437 32.319
C 24.881 22.89  25.413
H 24.583 22.325 24.525
H 25.511 23.706 25.089
C 23.753 23.403 26.227
H 24.149 23.87  27.144
C 22.439 23.403 26.018
C 21.774 23.147 24.691
H 22.395 23.094 23.826
H 21.219 22.192 24.708
H 20.945 23.902 24.57 
C 21.501 23.882 26.994
H 21.979 23.737 27.967
H 20.617 23.317 27.017
C 21.174 25.349 26.982
H 21.709 25.752 26.082
H 21.56  25.832 27.917
C 19.661 25.587 26.883
H 19.068 24.894 26.376
H 19.707 26.456 26.207
C 18.906 25.973 28.202
H 19.379 26.836 28.582
C 18.861 24.816 29.184
H 18.048 24.103 28.907
H 19.795 24.301 29.124
H 18.728 25.242 30.193
C 17.51  26.4   27.649
H 16.948 26.509 28.573
H 17.163 25.639 26.993
C 17.487 27.848 26.94 
H 17.44  27.684 25.87 
H 18.394 28.317 27.07 
C 16.184 28.695 27.221
H 15.414 28.189 27.854
H 15.779 29.028 26.293
C 16.625 29.945 28.046
H 17.439 30.445 27.432
C 17.143 29.44  29.393
H 16.369 28.841 29.938
H 18.007 28.807 29.185
H 17.479 30.233 30.121
C 15.391 30.913 28.205
H 14.826 30.536 29.017
H 14.866 30.803 27.254
C 15.866 32.359 28.557
H 16.911 32.364 28.62 
H 15.465 32.617 29.555
C 15.449 33.291 27.405
H 14.671 32.842 26.821
H 16.386 33.386 26.842
C 14.846 34.639 27.923
H 14.064 34.355 28.625
C 14.268 35.463 26.787
H 13.822 36.379 27.062
H 15.16  35.682 26.18 
H 13.436 34.926 26.268
C 15.852 35.473 28.695
H 16.792 35.592 28.152
H 15.427 36.417 28.953
H 16.079 34.895 29.592
