137

Mg 36.798 33.837 35.742
C 34.112 32.038 34.487
C 38.643 32.825 33.014
H 39.256 32.498 32.167
C 39.451 35.42  37.097
H 40.265 36.058 37.457
C 35.003 34.266 38.683
H 34.428 34.526 39.512
N 36.433 32.676 33.961
C 35.233 32.078 33.623
C 35.251 31.473 32.192
H 34.854 30.451 32.292
C 36.795 31.461 31.89 
H 37.005 31.941 30.869
C 37.368 32.369 33.051
C 37.3   30.034 32.017
H 38.277 29.907 31.546
H 37.333 29.873 33.077
H 36.679 29.28  31.483
C 34.412 32.329 31.263
H 34.83  33.314 31.349
H 33.439 32.308 31.725
C 34.252 31.969 29.746
H 34.443 32.742 29.025
H 34.988 31.205 29.48 
C 32.932 31.364 29.28 
O 32.616 30.181 29.536
O 32.171 32.333 28.704
N 38.736 34.042 35.205
C 39.298 33.611 33.989
C 40.619 34.134 33.913
C 40.859 34.909 35.033
C 39.614 34.748 35.859
C 41.504 33.887 32.705
H 41.781 34.797 32.217
H 42.411 33.45  33.013
H 41.165 33.268 31.905
C 42.067 35.676 35.408
H 42.265 36.104 36.407
C 43.047 36.105 34.59 
H 43.038 35.921 33.54 
H 43.85  36.799 34.89 
N 37.121 34.698 37.593
C 38.335 35.359 37.942
C 38.146 36.017 39.287
C 36.849 35.613 39.729
C 36.293 34.781 38.639
C 39.209 36.863 39.944
H 39.02  37.063 41.005
H 40.217 36.457 39.904
H 39.154 37.862 39.442
C 36.274 35.812 41.163
H 35.708 34.927 41.347
H 37.034 35.838 41.899
C 35.356 37.011 41.344
H 35.153 37.024 42.415
H 35.886 37.925 41.115
H 34.539 36.838 40.625
N 34.904 33.371 36.426
C 34.289 33.565 37.699
C 33.025 32.974 37.737
C 32.891 32.276 36.492
C 34.051 32.622 35.717
C 32.028 33.073 38.848
H 31.546 34.004 38.867
H 31.309 32.315 38.753
H 32.475 32.946 39.846
C 32.076 31.384 35.692
O 30.938 30.991 35.912
C 32.864 31.188 34.39 
H 32.184 31.483 33.583
C 32.976 29.699 34.417
O 33.813 29.112 35.072
O 32.103 29.128 33.515
C 32.361 27.661 33.451
H 31.923 27.162 34.302
H 31.735 27.48  32.528
H 33.423 27.45  33.195
C 30.918 31.797 28.108
H 30.281 31.135 28.709
H 31.161 31.243 27.248
C 30.165 33.092 27.82 
H 30.631 33.739 27.03 
C 28.975 33.596 28.269
C 28.251 33.109 29.482
H 28.398 32.125 29.78 
H 28.536 33.764 30.287
H 27.208 33.15  29.297
C 28.367 34.734 27.472
H 29.031 35.264 26.786
H 28.123 35.492 28.188
C 27.065 34.407 26.678
H 26.863 33.362 26.862
H 27.217 34.587 25.593
C 25.85  35.169 27.131
H 26.18  35.977 27.809
H 25.158 34.627 27.742
C 25.059 35.84  25.986
H 24.965 35.174 25.146
C 25.757 37.112 25.523
H 25.811 37.972 26.276
H 26.819 36.811 25.31 
H 25.147 37.431 24.629
C 23.672 36.156 26.408
H 23.303 36.902 25.704
H 23.804 36.598 27.389
C 22.651 35.025 26.472
H 23.167 34.114 26.088
H 21.875 35.083 25.7  
C 22.019 34.72  27.848
H 20.971 34.896 27.783
H 22.303 35.487 28.591
C 22.382 33.347 28.54 
H 23.452 33.431 28.379
C 21.664 32.178 27.84 
H 22.139 31.354 28.311
H 20.609 32.196 28.149
H 21.718 32.163 26.778
C 22.179 33.35  30.1  
H 22.218 32.344 30.341
H 21.211 33.841 30.269
C 23.213 34.117 30.943
H 22.678 34.819 31.544
H 23.986 34.644 30.392
C 24.003 33.223 32.009
H 23.438 32.369 32.432
H 24.138 33.742 32.932
C 25.29  32.543 31.502
H 25.885 33.13  30.821
C 24.973 31.218 30.692
H 24.363 31.32  29.806
H 26.073 30.97  30.422
H 24.542 30.457 31.359
C 26.162 32.123 32.757
H 27.224 32.04  32.528
H 26.101 32.942 33.513
H 25.792 31.158 33.043
