137

Mg 20.301 19.045 25.015
C 22.975 18.663 22.778
C 22.073 21.419 26.571
H 22.721 22.026 27.175
C 17.846 19.289 27.196
H 17.068 19.284 27.999
C 18.411 16.769 23.123
H 17.738 16.117 22.61 
N 22.307 20.074 24.629
C 23.212 19.682 23.728
C 24.492 20.542 23.824
H 25.251 19.776 24.069
C 24.146 21.413 25.021
H 24.068 22.482 24.6  
C 22.799 20.909 25.477
C 25.133 21.36  26.225
H 25.266 20.465 26.826
H 26.161 21.482 25.851
H 24.793 21.948 27.057
C 24.817 21.233 22.439
H 24.129 22.065 22.306
H 24.557 20.631 21.649
C 26.209 21.781 22.485
H 26.615 21.804 23.506
H 26.725 21.032 21.947
C 26.512 23.125 21.811
O 27.442 23.365 21.032
O 25.613 24.074 22.309
N 19.905 20.317 26.429
C 20.757 21.196 26.999
C 20.225 21.853 28.147
C 19.023 21.206 28.369
C 18.931 20.164 27.357
C 20.893 23.101 28.851
H 20.019 23.546 29.377
H 21.596 22.803 29.554
H 21.23  23.874 28.17 
C 17.955 21.402 29.459
H 16.951 21.16  29.242
C 18.23  21.718 30.737
H 19.238 22.051 30.971
H 17.372 21.942 31.435
N 18.379 18.212 25.111
C 17.569 18.42  26.157
C 16.406 17.551 26.018
C 16.519 16.837 24.857
C 17.826 17.246 24.293
C 15.399 17.368 27.116
H 15.533 16.412 27.68 
H 15.42  18.125 27.913
H 14.41  17.146 26.583
C 15.554 15.784 24.346
H 16.008 14.851 24.151
H 14.92  15.548 25.155
C 14.871 16.24  23.003
H 13.949 15.621 22.785
H 14.468 17.24  23.11 
H 15.458 16.294 22.094
N 20.652 17.992 23.359
C 19.779 17.057 22.686
C 20.437 16.614 21.522
C 21.691 17.063 21.631
C 21.794 17.905 22.743
C 19.954 15.789 20.387
H 19.442 14.893 20.807
H 19.232 16.176 19.63 
H 20.798 15.268 19.973
C 22.994 16.939 21.022
O 23.369 16.321 20.082
C 23.828 18.024 21.71 
H 24.082 18.615 20.857
C 25.073 17.468 22.309
O 25.003 16.711 23.216
O 26.183 18.18  21.971
C 27.443 17.942 22.705
H 27.162 18.072 23.712
H 27.886 16.999 22.531
H 28.119 18.697 22.253
C 25.841 25.403 21.849
H 25.544 25.434 20.785
H 26.818 25.795 21.985
C 24.788 26.245 22.572
H 24.097 26.709 21.979
C 24.863 26.773 23.826
C 26.078 26.562 24.776
H 26.434 27.504 25.226
H 25.915 25.83  25.542
H 26.846 26.106 24.178
C 23.894 27.941 24.125
H 23.474 27.617 25.122
H 23.065 27.875 23.486
C 24.422 29.396 24.269
H 25.452 29.433 23.888
H 24.542 29.646 25.288
C 23.513 30.428 23.503
H 22.67  29.961 23.026
H 24.225 30.823 22.783
C 22.827 31.619 24.414
H 23.661 32.143 24.965
C 21.811 30.987 25.426
H 21.137 30.332 24.846
H 22.42  30.557 26.173
H 21.193 31.756 25.791
C 22.071 32.677 23.54 
H 21.543 33.512 24.101
H 21.347 32.17  22.853
C 22.944 33.542 22.614
H 22.197 33.927 22.027
H 23.589 33.017 21.986
C 23.508 34.899 23.275
H 24.571 34.918 23.107
H 23.246 35.116 24.341
C 23.04  36.232 22.561
H 22.995 36.18  21.48 
C 24.054 37.372 22.928
H 23.746 38.323 22.363
H 24.086 37.541 23.984
H 25.039 37.019 22.699
C 21.499 36.642 22.915
H 21.343 36.989 23.942
H 20.774 35.827 22.864
C 20.983 37.481 21.811
H 20.487 36.758 21.122
H 21.788 38.018 21.358
C 19.979 38.534 22.308
H 20.442 39.434 22.442
H 19.548 38.197 23.235
C 18.769 38.718 21.336
H 19.138 39.    20.358
C 18.026 40.019 21.724
H 18.818 40.817 21.734
H 17.259 40.271 20.992
H 17.646 39.951 22.775
C 17.778 37.501 21.278
H 18.187 36.521 21.175
H 17.315 37.473 22.253
H 17.024 37.602 20.499
