137

Mg 36.995 32.843 35.152
C 34.109 31.076 34.439
C 38.426 31.618 32.323
H 38.906 31.409 31.359
C 39.777 34.476 36.022
H 40.6   35.195 36.2  
C 35.385 33.81  38.198
H 34.88  34.225 39.1  
N 36.277 31.578 33.585
C 35.031 31.049 33.422
C 34.863 30.322 32.025
H 34.492 29.28  32.235
C 36.346 30.289 31.578
H 36.571 30.787 30.632
C 37.09  31.228 32.547
C 37.052 28.922 31.402
H 37.911 29.003 30.738
H 37.366 28.394 32.302
H 36.204 28.371 31.001
C 33.924 31.178 31.136
H 34.397 32.153 30.946
H 32.958 31.116 31.631
C 33.701 30.551 29.726
H 34.212 31.258 29.071
H 34.218 29.591 29.478
C 32.338 30.365 29.227
O 31.909 29.298 28.892
O 31.641 31.55  29.119
N 38.827 32.951 34.282
C 39.29  32.321 33.186
C 40.683 32.751 32.92 
C 41.029 33.589 33.948
C 39.848 33.715 34.786
C 41.424 32.35  31.656
H 42.249 32.959 31.399
H 41.782 31.451 31.96 
H 40.751 32.208 30.78 
C 42.268 34.365 34.066
H 42.191 35.37  34.464
C 43.434 33.865 33.716
H 43.604 32.82  33.31 
H 44.359 34.362 33.944
N 37.488 33.899 36.758
C 38.695 34.538 36.88 
C 38.636 35.35  38.123
C 37.417 35.053 38.784
C 36.678 34.255 37.847
C 39.832 36.175 38.588
H 40.228 35.741 39.507
H 40.579 36.38  37.838
H 39.336 37.078 38.979
C 36.885 35.651 40.014
H 36.232 34.974 40.526
H 37.715 35.797 40.673
C 36.192 36.994 39.831
H 35.922 37.333 40.831
H 36.803 37.724 39.265
H 35.28  36.98  39.294
N 35.186 32.453 36.193
C 34.656 32.969 37.383
C 33.337 32.363 37.661
C 33.014 31.683 36.474
C 34.188 31.744 35.664
C 32.361 32.515 38.802
H 31.441 32.892 38.267
H 32.169 31.519 39.285
H 32.738 33.302 39.518
C 32.124 30.888 35.731
O 30.969 30.524 35.947
C 32.749 30.581 34.315
H 32.166 31.006 33.573
C 32.692 29.092 34.155
O 33.086 28.288 35.004
O 32.237 28.711 32.874
C 32.029 27.337 32.653
H 31.916 27.263 31.53 
H 32.907 26.76  32.98 
H 31.105 27.059 33.061
C 30.223 31.373 28.709
H 29.67  30.905 29.553
H 30.158 30.688 27.835
C 29.625 32.649 28.29 
H 30.337 33.18  27.729
C 28.542 33.252 28.652
C 27.669 32.724 29.758
H 26.72  33.214 29.731
H 27.465 31.623 29.65 
H 28.168 32.854 30.708
C 28.116 34.589 28.005
H 28.923 35.017 27.339
H 27.927 35.345 28.767
C 26.792 34.594 27.253
H 26.466 33.546 27.017
H 26.97  35.034 26.24 
C 25.661 35.442 27.828
H 25.854 36.392 27.221
H 25.903 35.663 28.892
C 24.246 34.869 27.642
H 24.283 34.    28.278
C 23.792 34.394 26.257
H 23.648 35.308 25.679
H 24.531 33.76  25.867
H 22.894 33.716 26.244
C 23.206 35.906 28.267
H 22.878 36.493 27.392
H 23.679 36.507 28.991
C 21.878 35.287 28.833
H 22.017 34.307 29.224
H 21.071 35.31  28.068
C 21.263 36.177 30.029
H 20.47  36.847 29.67 
H 22.025 36.724 30.451
C 20.557 35.345 31.128
H 21.387 34.779 31.544
C 19.366 34.408 30.677
H 19.164 33.696 31.505
H 18.489 34.94  30.232
H 19.618 33.856 29.814
C 20.032 36.236 32.278
H 19.247 36.88  32.028
H 20.864 36.808 32.615
C 19.689 35.524 33.548
H 19.983 36.14  34.465
H 20.117 34.476 33.6  
C 18.182 35.322 33.621
H 18.06  34.239 33.693
H 17.693 35.549 32.675
C 17.398 35.992 34.86 
H 17.5   37.088 34.803
C 17.83  35.416 36.174
H 17.169 35.597 37.072
H 17.94  34.346 36.044
H 18.836 35.868 36.383
C 15.95  35.608 34.678
H 15.204 36.176 35.274
H 15.62  35.741 33.622
H 15.951 34.545 34.87 
