137

Mg 25.262 29.319 37.329
C 23.435 26.784 38.709
C 22.273 30.745 36.231
H 21.395 31.066 35.753
C 26.824 32.145 36.391
H 27.429 32.931 35.984
C 28.073 28.026 38.55 
H 29.049 27.659 38.965
N 23.166 28.801 37.425
C 22.664 27.673 37.989
C 21.171 27.548 37.735
H 21.125 26.582 37.237
C 20.891 28.591 36.628
H 20.003 29.146 36.918
C 22.178 29.504 36.775
C 20.555 28.093 35.234
H 20.13 28.88 34.67
H 21.467 27.681 34.761
H 19.802 27.306 35.157
C 20.299 27.749 39.046
H 20.235 28.82  39.263
H 20.718 27.291 39.981
C 18.879 27.239 38.88 
H 18.567 27.212 37.854
H 18.81  26.244 39.24 
C 17.769 28.089 39.57 
O 17.154 27.715 40.551
O 17.481 29.292 39.005
N 24.673 31.132 36.499
C 23.419 31.529 36.086
C 23.37  32.878 35.575
C 24.659 33.335 35.62 
C 25.47  32.232 36.176
C 22.152 33.692 35.218
H 22.257 34.586 35.891
H 22.109 34.075 34.168
H 21.231 33.267 35.388
C 25.227 34.705 35.431
H 26.23  34.769 35.818
C 24.662 35.793 34.85 
H 23.708 35.714 34.319
H 25.228 36.701 34.61 
N 27.179 30.027 37.57 
C 27.651 31.178 37.038
C 29.129 31.234 37.173
C 29.453 30.032 37.83 
C 28.268 29.287 37.984
C 30.065 32.322 36.653
H 30.957 31.869 36.375
H 29.632 32.824 35.806
H 30.242 32.956 37.526
C 30.739 29.679 38.461
H 31.033 28.662 38.151
H 31.516 30.315 38.004
C 30.976 29.602 39.975
H 30.659 28.761 40.531
H 32.036 29.674 40.05 
H 30.52  30.357 40.512
N 25.805 27.706 38.365
C 26.948 27.272 38.855
C 26.717 26.064 39.641
C 25.381 25.846 39.578
C 24.857 26.877 38.82 
C 27.664 25.353 40.542
H 28.459 24.877 39.911
H 28.086 26.062 41.236
H 27.272 24.516 41.122
C 24.412 24.954 40.105
O 24.476 24.029 40.859
C 23.055 25.576 39.549
H 22.335 25.901 40.29 
C 22.439 24.494 38.734
O 22.747 24.212 37.608
O 21.447 23.918 39.431
C 20.766 22.797 38.894
H 20.08  22.511 39.667
H 20.235 23.025 38.001
H 21.36  21.919 38.631
C 16.485 30.093 39.69 
H 16.483 30.08  40.75 
H 15.623 29.562 39.302
C 16.306 31.474 39.025
H 16.2   31.362 37.918
C 16.401 32.726 39.56 
C 16.684 32.987 41.022
H 17.611 33.603 41.086
H 15.782 33.375 41.415
H 16.769 32.091 41.601
C 16.348 33.779 38.501
H 16.527 33.385 37.425
H 17.167 34.434 38.662
C 15.072 34.583 38.648
H 15.44  35.52  39.052
H 14.357 34.083 39.317
C 14.42  34.963 37.291
H 13.366 34.595 37.285
H 14.851 34.456 36.45 
C 14.327 36.563 37.016
H 13.909 36.949 37.904
C 13.163 36.859 36.012
H 12.364 36.085 36.012
H 12.808 37.828 35.934
H 13.638 36.715 35.032
C 15.743 37.26  36.711
H 16.371 36.923 37.605
H 15.51  38.335 36.686
C 16.362 36.703 35.431
H 15.672 36.709 34.615
H 16.568 35.628 35.619
C 17.69  37.381 34.98 
H 18.023 37.858 35.863
H 17.523 38.198 34.214
C 18.814 36.497 34.374
H 18.95  35.688 35.068
C 20.155 37.352 34.393
H 20.969 36.622 34.29 
H 20.173 37.877 33.428
H 20.197 37.929 35.331
C 18.485 36.025 32.914
H 18.298 36.9   32.375
H 17.661 35.321 33.003
C 19.656 35.192 32.213
H 20.108 34.547 32.999
H 20.431 35.87  31.842
C 19.204 34.264 31.008
H 18.087 34.02  31.127
H 19.872 33.438 31.025
C 19.396 34.808 29.602
H 20.476 34.803 29.443
C 18.919 36.286 29.214
H 19.184 36.423 28.169
H 17.841 36.383 29.396
H 19.393 37.048 29.815
C 18.979 33.762 28.602
H 19.296 34.19  27.614
H 19.483 32.812 28.824
H 17.93  33.666 28.617
