137

Mg 21.471 29.575 30.08 
C 22.667 26.725 31.648
C 18.523 29.147 31.88 
H 17.549 29.015 32.458
C 20.269 32.411 28.864
H 19.837 33.378 28.456
C 24.352 29.889 28.334
H 25.307 29.989 27.86 
N 20.724 28.195 31.65 
C 21.407 27.07  32.126
C 20.586 26.16  33.102
H 20.609 25.178 32.667
C 19.163 26.976 33.023
H 18.891 27.337 34.039
C 19.471 28.198 32.16 
C 17.992 26.037 32.468
H 18.192 26.008 31.371
H 17.998 25.051 32.954
H 17.081 26.531 32.728
C 21.115 26.165 34.565
H 21.169 27.239 34.834
H 22.195 25.9   34.494
C 20.351 25.44  35.717
H 19.551 24.862 35.302
H 21.026 24.734 36.11 
C 20.004 26.308 36.83 
O 20.513 26.279 37.948
O 19.008 27.148 36.358
N 19.634 30.662 30.297
C 18.539 30.371 31.039
C 17.518 31.305 30.839
C 17.97  32.273 30.039
C 19.361 31.736 29.677
C 16.196 31.124 31.513
H 16.294 31.453 32.54 
H 15.422 31.601 30.92 
H 15.985 30.106 31.453
C 17.3   33.413 29.523
H 17.475 33.683 28.429
C 16.515 34.237 30.289
H 16.397 34.191 31.387
H 16.11  35.087 29.689
N 22.226 30.937 28.841
C 21.576 32.073 28.436
C 22.425 32.822 27.53 
C 23.657 32.131 27.507
C 23.466 30.966 28.259
C 21.887 34.089 26.809
H 20.751 34.14  26.668
H 22.271 34.923 27.389
H 22.155 34.163 25.777
C 24.901 32.568 26.791
H 25.283 31.739 26.194
H 24.765 33.26  25.966
C 25.981 33.133 27.725
H 25.724 34.034 28.277
H 26.449 32.345 28.319
H 26.841 33.489 27.051
N 23.241 28.558 30.061
C 24.341 28.763 29.216
C 25.278 27.708 29.432
C 24.699 26.899 30.374
C 23.432 27.445 30.74 
C 26.687 27.587 28.796
H 26.753 28.444 28.171
H 27.493 27.705 29.545
H 26.803 26.608 28.257
C 24.928 25.679 31.173
O 25.873 24.89  31.268
C 23.601 25.548 32.015
H 23.841 25.661 33.077
C 23.112 24.168 31.65 
O 22.665 23.803 30.578
O 23.211 23.308 32.718
C 22.671 22.012 32.525
H 21.638 22.318 32.513
H 22.815 21.522 31.565
H 22.895 21.354 33.339
C 18.45  28.161 37.231
H 19.237 28.656 37.778
H 17.826 27.738 38.024
C 17.582 29.085 36.477
H 17.006 28.484 35.79 
C 17.575 30.44  36.486
C 18.339 31.313 37.353
H 17.601 31.927 37.933
H 18.961 30.724 37.993
H 18.975 32.068 36.819
C 16.741 31.089 35.415
H 16.29  30.315 34.796
H 17.313 31.73  34.774
C 15.538 31.905 35.93 
H 15.625 32.158 36.995
H 14.713 31.233 35.843
C 15.194 33.109 35.099
H 14.268 33.001 34.581
H 15.961 33.286 34.289
C 15.156 34.449 35.812
H 16.174 34.421 36.309
C 14.182 34.442 37.018
H 13.151 34.578 36.665
H 14.183 33.533 37.544
H 14.572 35.269 37.653
C 14.937 35.706 34.858
H 13.826 35.83  34.74 
H 15.242 35.428 33.919
C 15.473 37.05  35.186
H 15.942 36.956 36.215
H 14.617 37.625 35.47 
C 16.487 37.672 34.192
H 16.649 36.855 33.483
H 17.487 37.932 34.664
C 15.973 38.933 33.377
H 15.528 39.727 34.061
C 14.811 38.496 32.368
H 15.253 37.75  31.739
H 13.974 38.243 33.044
H 14.561 39.294 31.701
C 17.18  39.514 32.58 
H 16.766 40.294 32.04 
H 17.522 38.752 31.885
C 18.171 40.179 33.477
H 19.06  39.565 33.436
H 17.914 40.179 34.52 
C 18.492 41.696 33.153
H 18.497 42.168 34.119
H 17.733 42.181 32.543
C 19.808 42.11  32.492
H 20.554 41.826 33.181
C 20.121 43.642 32.495
H 20.076 44.044 33.465
H 21.014 43.767 32.009
H 19.34  44.05  31.884
C 19.983 41.35  31.176
H 20.945 41.514 30.648
H 19.928 40.274 31.408
H 19.233 41.648 30.481
