137

Mg 37.074 35.075 35.69 
C 33.77  35.968 35.497
C 36.249 31.98  34.344
H 36.012 31.123 33.747
C 40.192 34.114 36.311
H 41.126 33.695 36.652
C 37.728 38.2   37.1  
H 37.848 39.238 37.395
N 35.194 34.052 35.05 
C 33.951 34.631 35.001
C 32.963 33.796 34.272
H 32.208 33.723 35.091
C 33.732 32.44  34.234
H 33.839 32.108 33.199
C 35.134 32.807 34.624
C 33.065 31.385 35.114
H 33.186 31.671 36.208
H 32.058 31.31  34.79 
H 33.535 30.415 34.867
C 32.342 34.314 32.921
H 33.128 34.43  32.167
H 31.956 35.269 33.047
C 31.259 33.457 32.169
H 31.719 33.31  31.123
H 31.133 32.458 32.672
C 29.952 34.039 31.74 
O 29.649 35.206 31.735
O 29.196 33.034 31.249
N 38.011 33.372 35.359
C 37.583 32.256 34.69 
C 38.719 31.301 34.448
C 39.793 31.854 35.114
C 39.3   33.182 35.702
C 38.52  29.982 33.706
H 37.655 29.502 34.117
H 38.275 30.136 32.663
H 39.446 29.399 33.794
C 41.196 31.408 35.276
H 41.685 31.654 36.257
C 42.022 30.728 34.472
H 41.734 30.483 33.399
H 42.987 30.424 34.9  
N 38.728 36.06  36.453
C 39.937 35.383 36.648
C 40.821 36.349 37.35 
C 40.145 37.571 37.414
C 38.801 37.321 36.939
C 42.157 36.072 37.898
H 42.736 35.293 37.449
H 42.874 36.939 37.79 
H 42.084 35.996 38.981
C 40.634 38.869 37.957
H 39.832 39.364 38.48 
H 41.443 38.696 38.599
C 41.039 39.844 36.875
H 41.026 40.824 37.239
H 42.048 39.618 36.505
H 40.353 39.74  36.003
N 36.083 36.758 36.064
C 36.436 37.92  36.715
C 35.342 38.789 36.971
C 34.298 38.022 36.525
C 34.754 36.816 35.972
C 35.358 40.152 37.5  
H 34.421 40.283 38.062
H 36.142 40.252 38.237
H 35.377 40.859 36.67 
C 32.832 38.09  36.4  
O 32.018 38.945 36.672
C 32.503 36.783 35.585
H 32.39  37.055 34.611
C 31.296 36.117 36.12 
O 31.134 35.826 37.265
O 30.387 35.731 35.099
C 29.135 35.049 35.546
H 28.724 35.457 36.499
H 28.375 35.046 34.81 
H 29.558 34.088 35.735
C 27.794 33.338 31.145
H 27.519 34.17  30.445
H 27.446 33.583 32.145
C 27.026 32.206 30.649
H 26.873 31.393 31.317
C 26.544 31.927 29.396
C 26.858 32.783 28.17 
H 26.039 33.425 27.929
H 27.707 33.286 28.46 
H 26.971 32.141 27.275
C 25.823 30.542 29.157
H 25.675 30.102 30.122
H 26.521 29.873 28.52 
C 24.459 30.553 28.52 
H 24.51  29.997 27.591
H 24.26  31.546 28.172
C 23.297 29.965 29.309
H 23.574 29.822 30.299
H 23.141 29.06  28.775
C 22.078 30.804 29.193
H 21.937 30.946 28.123
C 22.246 32.203 29.833
H 21.321 32.693 29.813
H 22.652 32.04  30.785
H 23.023 32.847 29.291
C 20.849 30.098 29.842
H 20.678 29.125 29.412
H 19.948 30.698 29.667
C 20.896 29.728 31.352
H 21.623 30.391 31.85 
H 21.197 28.702 31.402
C 19.502 29.845 32.039
H 19.401 29.057 32.739
H 18.781 29.554 31.323
C 18.956 31.187 32.672
H 19.096 32.001 31.942
C 19.862 31.577 33.826
H 20.871 31.749 33.404
H 19.582 32.555 34.343
H 19.817 30.762 34.541
C 17.5   30.961 32.925
H 17.324 31.703 33.646
H 17.233 30.1   33.456
C 16.538 31.133 31.759
H 17.131 31.19  30.854
H 16.093 32.086 31.908
C 15.52  29.999 31.507
H 14.621 30.129 32.121
H 15.98  29.055 31.899
C 15.157 29.633 30.064
H 16.106 29.432 29.454
C 14.323 30.668 29.288
H 14.08  30.443 28.251
H 13.467 30.955 29.822
H 14.993 31.466 29.159
C 14.301 28.297 30.065
H 13.933 27.888 29.136
H 14.826 27.599 30.579
H 13.37  28.424 30.629
