137

Mg 19.976 25.534 30.719
C 22.922 24.007 29.493
C 21.897 28.164 31.646
H 22.481 29.082 31.946
C 17.215 27.313 31.262
H 16.41  27.983 31.388
C 18.253 22.824 29.52 
H 17.623 21.947 29.199
N 22.163 25.924 30.764
C 23.14  25.237 30.047
C 24.509 25.905 30.207
H 25.235 25.201 30.592
C 24.16  27.09  31.245
H 24.348 28.085 30.859
C 22.619 27.081 31.209
C 24.946 27.168 32.473
H 24.742 26.249 33.001
H 26.046 27.312 32.326
H 24.59  27.969 33.063
C 25.258 26.29  28.913
H 24.732 27.219 28.479
H 25.171 25.473 28.193
C 26.78  26.679 29.138
H 27.213 26.305 30.122
H 27.315 26.04  28.403
C 27.186 28.036 28.746
O 27.861 28.333 27.751
O 26.719 28.962 29.642
N 19.591 27.418 31.362
C 20.571 28.385 31.723
C 19.918 29.6   32.139
C 18.551 29.483 32.028
C 18.4   28.077 31.501
C 20.839 30.703 32.772
H 21.071 31.34  31.956
H 20.268 31.29  33.421
H 21.713 30.413 33.355
C 17.407 30.347 32.432
H 16.442 29.839 32.576
C 17.496 31.639 32.794
H 18.371 32.247 32.67 
H 16.644 32.169 33.169
N 18.078 25.168 30.48 
C 17.067 25.987 30.772
C 15.801 25.245 30.729
C 16.152 24.032 30.162
C 17.562 23.924 30.   
C 14.444 25.788 31.18 
H 14.387 25.53  32.251
H 14.432 26.845 31.183
H 13.567 25.412 30.639
C 15.153 22.919 29.765
H 14.14  23.297 29.639
H 15.402 22.446 28.797
C 15.031 21.876 30.904
H 14.83  22.283 31.929
H 14.171 21.249 30.562
H 15.988 21.338 30.846
N 20.462 23.753 29.738
C 19.626 22.723 29.323
C 20.402 21.651 28.77 
C 21.681 22.122 28.758
C 21.686 23.393 29.389
C 19.956 20.297 28.252
H 19.193 20.432 27.47 
H 20.843 19.805 27.754
H 19.593 19.734 29.181
C 23.008 21.798 28.275
O 23.413 20.81  27.706
C 23.9   23.029 28.803
H 24.197 23.475 27.908
C 25.103 22.42  29.478
O 25.072 21.447 30.229
O 26.169 23.153 29.169
C 27.446 22.72  29.941
H 28.366 23.273 29.724
H 27.299 23.004 30.987
H 27.646 21.659 29.851
C 27.325 30.272 29.298
H 27.284 30.576 28.233
H 28.34  30.309 29.672
C 26.494 31.215 30.21 
H 26.952 31.298 31.206
C 25.344 31.858 29.971
C 24.499 31.745 28.743
H 23.425 31.581 29.058
H 24.583 32.587 28.034
H 24.981 30.928 28.184
C 24.709 32.546 31.089
H 25.186 32.358 32.132
H 23.702 32.055 31.229
C 24.426 34.    30.9  
H 24.937 34.333 30.04 
H 24.949 34.498 31.72 
C 22.941 34.312 30.798
H 22.23  33.466 30.755
H 22.736 34.847 29.889
C 22.497 35.373 31.946
H 23.361 35.981 32.262
C 21.956 34.722 33.314
H 22.725 34.287 33.916
H 21.5   35.4   33.992
H 21.188 33.91  33.14 
C 21.51  36.409 31.403
H 20.967 36.791 32.299
H 20.728 35.999 30.771
C 22.219 37.539 30.747
H 21.557 37.807 29.94 
H 23.131 37.059 30.23 
C 22.749 38.656 31.607
H 23.828 38.806 31.467
H 22.614 38.49  32.706
C 22.223 40.039 31.186
H 21.153 40.016 31.109
C 22.883 40.544 29.928
H 23.954 40.885 30.093
H 22.847 39.891 29.138
H 22.349 41.438 29.595
C 22.426 41.042 32.285
H 23.496 41.066 32.465
H 21.973 40.595 33.202
C 21.799 42.434 32.281
H 21.088 42.616 33.1  
H 21.251 42.752 31.372
C 22.927 43.518 32.455
H 23.781 43.078 31.951
H 23.19  43.539 33.542
C 22.818 44.901 31.834
H 22.698 44.663 30.799
C 24.161 45.783 31.918
H 23.967 46.762 31.432
H 24.545 45.937 32.934
H 24.903 45.316 31.37 
C 21.497 45.552 32.195
H 21.397 45.577 33.294
H 21.498 46.528 31.822
H 20.578 45.045 31.841
