137

Mg 29.171 33.595 34.892
C 27.355 34.477 37.69 
C 26.245 33.061 33.205
H 25.295 32.789 32.799
C 30.965 33.202 32.023
H 31.302 33.266 30.997
C 32.099 34.378 36.571
H 33.039 34.404 37.133
N 27.024 33.638 35.429
C 26.534 34.009 36.652
C 24.997 33.798 36.609
H 24.812 33.035 37.348
C 24.727 33.242 35.227
H 24.063 33.958 34.729
C 26.02  33.328 34.536
C 23.838 32.007 34.98 
H 23.419 31.84  34.003
H 24.429 31.209 35.307
H 22.974 32.158 35.684
C 24.142 35.084 36.973
H 24.3   35.899 36.194
H 24.534 35.526 37.8  
C 22.719 34.813 37.411
H 22.481 33.804 37.09 
H 22.709 34.955 38.47 
C 21.708 35.706 36.834
O 21.452 36.835 37.226
O 21.071 35.097 35.807
N 28.734 33.287 32.95 
C 27.419 33.167 32.456
C 27.499 33.132 30.986
C 28.865 33.104 30.61 
C 29.583 33.134 31.9  
C 26.277 32.986 30.154
H 25.378 33.165 30.711
H 26.197 33.614 29.283
H 26.194 31.926 29.925
C 29.393 32.845 29.287
H 30.283 32.211 29.223
C 29.034 33.502 28.153
H 28.214 34.309 28.192
H 29.416 33.306 27.176
N 31.191 33.847 34.322
C 31.759 33.535 33.14 
C 33.233 33.706 33.151
C 33.571 34.051 34.449
C 32.239 34.142 35.182
C 34.166 33.377 32.   
H 33.996 32.338 31.727
H 33.891 34.011 31.158
H 35.262 33.531 32.314
C 34.919 34.318 35.096
H 35.053 33.716 35.989
H 35.703 34.089 34.404
C 35.09  35.809 35.488
H 34.392 36.185 36.204
H 36.069 35.951 35.965
H 35.07 36.35 34.53
N 29.676 34.252 36.784
C 30.939 34.412 37.39 
C 30.814 34.668 38.808
C 29.445 34.761 38.959
C 28.749 34.524 37.7  
C 31.957 34.965 39.766
H 32.816 35.403 39.345
H 31.481 35.656 40.505
H 32.226 34.037 40.149
C 28.34  35.019 39.889
O 28.362 35.301 41.098
C 26.994 34.869 39.121
H 26.458 35.8   39.142
C 26.325 33.802 39.941
O 26.813 32.719 40.219
O 25.181 34.254 40.54 
C 24.552 33.346 41.469
H 23.886 33.977 42.095
H 24.03  32.698 40.81 
H 25.137 32.86  42.201
C 20.143 36.034 35.067
H 20.661 36.966 34.786
H 19.196 36.24  35.613
C 19.823 35.317 33.791
H 20.674 34.78  33.397
C 18.668 35.385 33.082
C 17.488 36.286 33.384
H 17.251 36.971 32.552
H 16.609 35.619 33.561
H 17.749 36.907 34.22 
C 18.672 34.741 31.672
H 19.633 34.243 31.493
H 18.692 35.535 30.968
C 17.547 33.777 31.416
H 17.334 33.412 32.44 
H 17.763 32.915 30.714
C 16.332 34.507 30.691
H 16.627 35.548 30.519
H 15.53  34.611 31.397
C 15.628 33.857 29.472
H 16.488 33.684 28.796
C 14.743 34.939 28.79 
H 15.24  35.861 28.513
H 14.308 34.7   27.838
H 13.999 35.23  29.551
C 14.892 32.496 29.698
H 15.549 31.704 30.089
H 14.57  32.195 28.73 
C 13.738 32.619 30.65 
H 13.79  33.521 31.163
H 13.858 31.828 31.371
C 12.364 32.491 29.952
H 12.552 32.745 28.897
H 11.729 33.193 30.458
C 11.746 31.05  30.008
H 11.769 30.784 31.071
C 12.628 30.018 29.297
H 12.689 30.1   28.203
H 13.584 29.815 29.673
H 12.06  29.069 29.438
C 10.265 31.176 29.562
H 10.308 31.493 28.527
H  9.875 31.985 30.181
C  9.306 29.997 29.83 
H  8.473 30.289 30.497
H  9.824 29.264 30.387
C  8.883 29.311 28.465
H  9.061 28.275 28.624
H  9.587 29.608 27.686
C  7.438 29.577 27.923
H  6.756 28.935 28.527
C  7.243 29.302 26.406
H  6.295 29.683 25.988
H  8.091 29.612 25.845
H  7.187 28.251 26.281
C  7.018 31.039 28.099
H  5.982 31.119 27.677
H  6.974 31.421 29.124
H  7.651 31.738 27.521
