137

Mg 34.377 36.751 33.822
C 31.236 35.21  33.662
C 35.828 33.795 33.235
H 36.22  32.826 32.99 
C 37.378 38.115 34.469
H 38.228 38.707 34.561
C 32.799 39.506 35.184
H 32.255 40.404 35.53 
N 33.634 34.846 33.339
C 32.313 34.409 33.286
C 32.2   33.002 32.797
H 31.615 32.579 33.596
C 33.688 32.484 32.659
H 34.098 32.415 31.676
C 34.458 33.764 33.158
C 34.105 31.203 33.471
H 34.024 31.303 34.532
H 33.481 30.374 33.209
H 35.145 30.963 33.239
C 31.399 32.93  31.45 
H 31.889 33.629 30.722
H 30.395 33.258 31.674
C 31.337 31.451 30.945
H 32.3   31.026 30.664
H 31.003 30.929 31.829
C 30.402 31.001 29.869
O 30.673 30.66  28.734
O 29.11  31.239 30.303
N 36.33  36.068 33.861
C 36.749 34.829 33.527
C 38.219 34.762 33.394
C 38.638 36.023 33.883
C 37.437 36.782 34.091
C 39.007 33.605 32.992
H 39.326 33.089 33.905
H 38.343 32.87  32.567
H 39.874 33.851 32.404
C 40.011 36.504 34.057
H 40.175 37.551 33.965
C 41.102 35.747 34.191
H 41.055 34.659 34.204
H 42.107 36.23  34.203
N 34.998 38.586 34.666
C 36.306 38.962 34.752
C 36.38  40.33  35.293
C 35.    40.709 35.549
C 34.199 39.601 35.119
C 37.731 41.061 35.431
H 38.403 40.425 35.993
H 38.183 41.513 34.569
H 37.493 41.953 36.005
C 34.64  42.086 36.013
H 34.49  42.141 37.102
H 35.501 42.712 35.873
C 33.523 42.747 35.244
H 33.763 43.8   35.338
H 33.418 42.309 34.239
H 32.79  42.378 35.969
N 32.408 37.276 34.29 
C 31.932 38.475 34.743
C 30.501 38.36  34.911
C 30.169 37.104 34.48 
C 31.4   36.493 34.101
C 29.511 39.418 35.347
H 28.404 39.272 35.13 
H 29.497 39.525 36.361
H 29.812 40.398 34.985
C 29.048 36.138 34.304
O 27.857 36.156 34.509
C 29.688 34.904 33.723
H 29.279 34.62  32.728
C 29.366 33.739 34.6  
O 29.319 33.67  35.79 
O 29.031 32.663 33.779
C 28.794 31.347 34.349
H 28.497 30.554 33.593
H 29.668 30.997 34.903
H 27.966 31.452 35.064
C 28.033 31.114 29.328
H 28.028 30.108 28.965
H 28.075 31.803 28.483
C 26.826 31.34  30.202
H 26.83  32.283 30.728
C 25.865 30.435 30.335
C 25.815 29.073 29.597
H 25.236 29.339 28.74 
H 26.807 28.575 29.387
H 25.144 28.434 30.181
C 24.665 30.717 31.218
H 24.989 31.59  31.712
H 24.651 29.851 31.905
C 23.29  30.846 30.545
H 23.411 30.925 29.481
H 22.831 31.82  30.761
C 22.272 29.731 30.975
H 21.297 30.234 31.046
H 22.411 29.213 31.927
C 21.867 28.613 29.959
H 22.828 28.382 29.598
C 21.04  29.029 28.722
H 20.949 28.113 28.127
H 20.151 29.402 29.09 
H 21.495 29.768 28.132
C 21.216 27.457 30.707
H 21.931 27.089 31.448
H 21.101 26.612 30.065
C 19.828 27.625 31.384
H 19.103 27.038 30.803
H 19.457 28.62  31.348
C 19.651 26.997 32.797
H 20.656 26.914 33.231
H 19.421 25.914 32.58 
C 18.66  27.646 33.772
H 17.702 27.878 33.26 
C 19.104 28.962 34.326
H 18.325 29.765 34.249
H 19.441 28.888 35.322
H 19.966 29.36  33.769
C 18.326 26.661 34.953
H 17.728 27.146 35.681
H 19.31  26.552 35.464
C 17.655 25.269 34.673
H 18.498 24.7   34.459
H 16.939 25.302 33.832
C 16.779 24.669 35.891
H 15.788 24.622 35.471
H 16.737 25.356 36.787
C 17.194 23.329 36.396
H 18.237 23.359 36.848
C 16.949 22.235 35.355
H 17.107 21.226 35.763
H 16.003 22.287 34.741
H 17.663 22.328 34.529
C 16.38  22.939 37.678
H 15.293 22.877 37.436
H 16.651 21.956 37.969
H 16.509 23.625 38.492
