137

Mg 35.402 31.94  36.152
C 33.098 30.903 33.75 
C 37.835 31.117 33.969
H 38.629 30.866 33.273
C 37.501 32.384 38.581
H 38.225 32.598 39.275
C 32.776 32.151 38.42 
H 31.927 32.199 39.186
N 35.458 31.228 34.126
C 34.389 30.885 33.291
C 34.849 30.398 31.891
H 34.344 29.499 31.612
C 36.372 30.218 32.08 
H 36.86  30.754 31.297
C 36.579 30.872 33.465
C 36.815 28.794 32.024
H 36.05  28.15  32.454
H 37.001 28.567 30.98 
H 37.833 28.695 32.491
C 34.476 31.439 30.809
H 35.135 32.248 31.031
H 33.472 31.851 30.861
C 34.593 30.813 29.414
H 35.409 31.255 28.801
H 34.651 29.729 29.401
C 33.392 30.955 28.515
O 33.382 31.59  27.433
O 32.359 30.197 29.028
N 37.418 31.894 36.208
C 38.258 31.553 35.23 
C 39.646 31.636 35.657
C 39.599 31.965 37.042
C 38.13  32.114 37.327
C 40.841 31.274 34.839
H 41.543 32.049 35.028
H 41.32  30.382 35.148
H 40.569 30.954 33.778
C 40.693 32.108 38.014
H 40.552 31.631 39.   
C 41.907 32.67  37.766
H 42.154 33.212 36.85 
H 42.574 32.827 38.597
N 35.196 32.283 38.125
C 36.211 32.432 39.009
C 35.679 32.746 40.325
C 34.385 32.599 40.238
C 34.039 32.419 38.888
C 36.489 33.035 41.503
H 37.485 32.737 41.418
H 36.516 34.147 41.757
H 36.163 32.557 42.401
C 33.347 32.778 41.355
H 32.588 31.966 41.328
H 33.797 32.589 42.393
C 32.592 34.11  41.3  
H 31.913 34.251 42.104
H 33.279 34.953 41.161
H 31.961 34.041 40.41 
N 33.351 31.783 36.112
C 32.376 31.894 37.068
C 31.066 31.592 36.555
C 31.392 31.215 35.296
C 32.754 31.294 35.072
C 29.746 31.543 37.357
H 30.01  30.699 38.053
H 29.475 32.423 37.903
H 28.952 31.119 36.7  
C 30.804 30.707 34.135
O 29.634 30.467 33.755
C 31.908 30.375 33.12 
H 31.813 31.021 32.319
C 32.052 28.903 32.869
O 32.421 28.097 33.725
O 31.806 28.548 31.578
C 32.295 27.235 31.071
H 33.322 27.098 31.265
H 31.771 26.437 31.555
H 32.134 27.095 30.006
C 31.203 30.258 28.129
H 31.549 29.721 27.235
H 30.862 31.266 27.815
C 30.143 29.489 28.876
H 29.806 29.953 29.742
C 29.539 28.29  28.685
C 29.888 27.342 27.576
H 28.934 27.031 27.097
H 30.44  27.922 26.793
H 30.265 26.38  27.928
C 28.611 27.697 29.716
H 28.707 28.216 30.67 
H 29.03  26.661 30.08 
C 27.147 27.651 29.177
H 26.963 26.777 28.626
H 26.862 28.491 28.572
C 26.131 27.661 30.392
H 25.522 28.558 30.304
H 26.605 27.721 31.339
C 25.118 26.437 30.534
H 25.698 25.492 30.438
C 24.146 26.378 29.361
H 23.644 25.32  29.344
H 23.336 27.07  29.312
H 24.725 26.522 28.477
C 24.323 26.496 31.799
H 24.942 26.483 32.66 
H 23.679 25.603 31.803
C 23.35  27.749 31.985
H 22.377 27.494 31.527
H 23.657 28.629 31.481
C 23.165 28.086 33.497
H 23.111 29.148 33.602
H 24.134 27.822 34.013
C 21.983 27.401 34.176
H 21.052 27.594 33.661
C 21.708 27.97  35.563
H 21.867 29.042 35.522
H 20.683 27.81  35.873
H 22.522 27.469 36.133
C 22.138 25.828 34.323
H 23.03  25.589 34.942
H 22.165 25.42  33.389
C 20.971 25.082 35.03 
H 20.915 24.221 34.43 
H 20.023 25.555 34.953
C 21.164 24.612 36.485
H 20.512 25.211 37.12 
H 22.189 24.826 36.743
C 20.74  23.172 36.733
H 21.263 22.553 36.027
C 19.187 22.874 36.612
H 18.99  21.793 36.862
H 18.582 23.57  37.232
H 19.011 22.913 35.563
C 21.329 22.642 38.115
H 21.092 21.58  38.174
H 22.477 22.923 38.279
H 20.716 23.04  38.849
