137

Mg 21.031 28.845 29.416
C 21.817 25.844 30.973
C 17.913 28.604 30.664
H 16.891 28.513 31.122
C 20.505 31.845 28.227
H 20.409 32.853 27.874
C 24.028 28.669 27.844
H 24.961 28.621 27.324
N 19.995 27.39  30.648
C 20.497 26.263 31.225
C 19.475 25.508 32.031
H 19.417 24.497 31.693
C 18.156 26.328 31.626
H 17.607 26.766 32.467
C 18.709 27.532 30.898
C 17.073 25.588 30.767
H 17.546 25.262 29.861
H 16.629 24.747 31.263
H 16.446 26.447 30.751
C 19.765 25.456 33.543
H 19.678 26.456 33.972
H 20.845 25.207 33.651
C 18.784 24.635 34.435
H 17.952 24.273 33.858
H 19.345 23.778 34.825
C 18.113 25.312 35.616
O 18.254 24.966 36.762
O 17.352 26.317 35.157
N 19.43  30.083 29.432
C 18.23  29.861 30.06 
C 17.336 31.032 29.84 
C 18.145 31.963 29.114
C 19.429 31.324 28.901
C 15.886 31.121 30.363
H 15.887 31.724 31.29 
H 15.177 31.52  29.637
H 15.427 30.162 30.654
C 17.841 33.274 28.507
H 18.509 33.662 27.751
C 16.847 34.113 28.81 
H 16.107 33.862 29.59 
H 16.702 35.146 28.404
N 22.115 30.157 28.201
C 21.725 31.351 27.819
C 22.762 32.021 27.017
C 23.76  31.042 26.835
C 23.33  29.879 27.597
C 22.627 33.391 26.361
H 21.658 33.523 25.915
H 22.825 34.135 27.139
H 23.332 33.567 25.519
C 25.077 31.147 26.031
H 25.039 30.366 25.236
H 25.148 32.121 25.557
C 26.343 30.833 26.934
H 26.595 31.727 27.555
H 26.328 29.984 27.65 
H 27.215 30.548 26.306
N 22.583 27.604 29.401
C 23.739 27.586 28.643
C 24.568 26.475 28.977
C 23.826 25.749 29.825
C 22.706 26.465 30.099
C 25.909 26.113 28.497
H 25.772 26.009 27.397
H 26.545 26.977 28.652
H 26.311 25.183 28.892
C 23.856 24.551 30.655
O 24.734 23.707 30.895
C 22.547 24.575 31.493
H 22.909 24.736 32.493
C 21.848 23.246 31.22 
O 21.289 22.928 30.129
O 22.012 22.419 32.344
C 21.517 21.073 32.186
H 20.44  21.093 32.223
H 21.803 20.697 31.241
H 21.776 20.451 32.961
C 16.539 26.998 36.18 
H 17.306 27.267 36.907
H 15.87  26.286 36.556
C 15.892 28.194 35.533
H 14.863 28.105 35.522
C 16.422 29.342 35.041
C 17.916 29.613 34.963
H 18.459 29.018 35.698
H 18.231 29.427 33.943
H 18.031 30.679 35.191
C 15.56  30.424 34.342
H 14.721 29.989 33.831
H 16.104 30.999 33.614
C 14.863 31.479 35.289
H 15.692 31.907 35.812
H 14.207 31.015 36.033
C 14.099 32.564 34.508
H 13.051 32.561 34.741
H 14.247 32.528 33.442
C 14.517 33.988 35.019
H 15.612 33.936 35.145
C 13.917 34.355 36.361
H 12.923 34.65  36.288
H 13.965 33.538 37.143
H 14.494 35.147 36.73 
C 14.236 35.127 34.013
H 13.16  35.261 33.996
H 14.44  34.776 32.991
C 14.876 36.543 34.235
H 15.417 36.603 35.198
H 14.044 37.257 34.263
C 15.945 36.944 33.226
H 16.242 36.159 32.59 
H 16.808 37.289 33.811
C 15.615 38.175 32.255
H 14.985 38.774 32.898
C 14.555 37.831 31.093
H 14.977 37.03  30.48 
H 13.67  37.472 31.6  
H 14.362 38.692 30.533
C 16.819 38.929 31.756
H 16.566 39.791 31.144
H 17.358 38.169 31.198
C 17.833 39.451 32.8  
H 18.784 38.931 32.716
H 17.523 39.283 33.791
C 17.955 41.038 32.745
H 17.595 41.505 33.692
H 17.419 41.56  31.958
C 19.458 41.446 32.616
H 20.087 40.925 33.317
C 19.663 42.963 32.918
H 19.548 43.071 33.951
H 20.754 43.253 32.852
H 18.915 43.431 32.302
C 20.023 40.96  31.281
H 21.01  41.298 31.234
H 19.943 39.928 31.159
H 19.552 41.395 30.422
