137

Mg 37.886 26.375 32.946
C 34.449 26.422 33.502
C 37.107 24.297 30.165
H 36.987 23.474 29.377
C 41.186 26.056 32.292
H 42.218 25.882 32.109
C 38.527 27.882 35.908
H 38.759 28.185 36.916
N 36.069 25.564 31.914
C 34.777 25.687 32.367
C 33.74  25.016 31.392
H 33.17  24.35  32.022
C 34.684 24.224 30.484
H 34.549 24.355 29.462
C 36.042 24.712 30.862
C 34.526 22.753 30.767
H 35.1   22.166 30.065
H 34.831 22.409 31.745
H 33.466 22.479 30.579
C 32.833 26.11  30.825
H 33.485 26.682 30.137
H 32.461 26.848 31.592
C 31.543 25.563 30.142
H 31.644 25.783 29.055
H 31.524 24.568 30.329
C 30.188 26.109 30.657
O 29.205 25.471 30.832
O 30.318 27.479 30.682
N 38.966 25.371 31.465
C 38.484 24.6   30.415
C 39.601 24.19  29.531
C 40.814 24.747 30.08 
C 40.338 25.466 31.355
C 39.375 23.404 28.294
H 38.359 23.589 27.937
H 40.092 23.648 27.434
H 39.202 22.367 28.436
C 42.232 24.756 29.624
H 42.914 25.539 30.021
C 42.74  23.771 28.832
H 42.115 22.897 28.394
H 43.887 23.707 28.615
N 39.573 26.891 33.906
C 40.849 26.786 33.418
C 41.778 27.348 34.461
C 40.942 27.81  35.466
C 39.624 27.636 35.085
C 43.358 27.522 34.246
H 44.014 27.346 35.107
H 43.765 26.986 33.422
H 43.585 28.482 33.963
C 41.488 28.42  36.725
H 41.129 27.886 37.582
H 42.586 28.465 36.72 
C 40.97  29.853 36.967
H 41.772 30.361 37.483
H 40.681 30.375 35.994
H 40.138 29.761 37.606
N 36.734 27.154 34.361
C 37.157 27.693 35.568
C 35.981 27.902 36.386
C 34.924 27.494 35.642
C 35.381 27.02  34.401
C 35.856 28.361 37.852
H 36.455 27.744 38.555
H 36.259 29.352 37.904
H 34.779 28.412 38.153
C 33.544 27.081 35.758
O 32.828 27.099 36.742
C 33.128 26.511 34.294
H 32.54  27.215 33.77 
C 32.369 25.282 34.576
O 32.741 24.193 34.969
O 31.137 25.409 34.017
C 30.207 24.299 33.892
H 30.728 23.379 33.686
H 29.82  24.336 34.883
H 29.448 24.456 33.112
C 29.042 28.256 30.778
H 28.669 28.417 31.766
H 28.199 27.714 30.402
C 29.14  29.562 29.975
H 29.388 29.459 28.912
C 29.066 30.855 30.355
C 28.779 31.24  31.765
H 29.542 31.955 32.098
H 27.807 31.74  31.887
H 28.829 30.339 32.349
C 29.293 31.959 29.412
H 30.051 31.632 28.711
H 29.908 32.682 29.917
C 28.152 32.587 28.704
H 28.076 33.654 28.93 
H 27.22  32.104 28.931
C 28.37  32.48  27.145
H 29.38  32.194 26.921
H 28.4   33.426 26.629
C 27.392 31.533 26.372
H 26.333 31.825 26.595
C 27.523 30.079 26.747
H 26.683 29.519 26.413
H 28.425 29.594 26.386
H 27.432 30.017 27.814
C 27.589 31.737 24.82 
H 27.024 30.988 24.265
H 28.679 31.601 24.711
C 27.172 33.031 24.157
H 28.105 33.464 23.774
H 26.881 33.703 24.961
C 25.964 32.918 23.148
H 25.141 33.482 23.624
H 25.527 31.894 23.087
C 26.303 33.284 21.663
H 27.347 32.923 21.509
C 26.462 34.838 21.534
H 26.927 35.044 20.612
H 25.448 35.259 21.607
H 27.132 35.179 22.417
C 25.191 32.744 20.679
H 25.241 33.439 19.867
H 24.19  32.951 21.093
C 25.444 31.298 20.239
H 24.511 30.79  20.255
H 26.045 30.775 20.998
C 26.119 31.132 18.871
H 26.99  30.518 18.879
H 26.375 32.084 18.446
C 25.194 30.551 17.826
H 24.209 30.971 17.778
C 25.018 29.015 18.049
H 25.915 28.429 17.987
H 24.46  28.811 19.007
H 24.419 28.706 17.173
C 25.808 30.809 16.443
H 25.027 30.478 15.67 
H 26.098 31.814 16.342
H 26.824 30.282 16.446
