137

Mg 26.938 25.881 43.665
C 23.494 25.266 43.613
C 27.057 25.235 40.297
H 27.093 25.143 39.181
C 30.255 26.715 43.668
H 31.263 26.976 43.78 
C 26.771 26.331 47.104
H 26.853 26.428 48.146
N 25.428 25.333 42.103
C 24.04  25.309 42.286
C 23.333 25.18  40.923
H 22.596 24.369 40.92 
C 24.507 24.911 39.946
H 24.633 25.605 39.065
C 25.743 25.129 40.837
C 24.43  23.526 39.222
H 25.162 23.512 38.371
H 24.734 22.804 39.993
H 23.382 23.251 39.061
C 22.524 26.365 40.4  
H 23.182 27.178 40.025
H 21.941 26.739 41.253
C 21.45  25.966 39.411
H 21.731 25.101 38.858
H 20.536 25.902 40.052
C 21.115 27.029 38.378
O 21.839 27.961 38.016
O 19.966 26.606 37.851
N 28.408 25.853 42.24 
C 28.288 25.558 40.903
C 29.52  25.675 40.229
C 30.414 26.249 41.171
C 29.707 26.297 42.424
C 29.792 25.434 38.724
H 30.761 24.88  38.641
H 29.189 24.672 38.232
H 29.82  26.346 38.144
C 31.812 26.84  41.019
H 32.362 26.958 41.941
C 32.364 27.161 39.864
H 31.748 27.171 38.934
H 33.427 27.467 39.809
N 28.267 26.45  45.209
C 29.632 26.69  44.991
C 30.28  27.105 46.239
C 29.358 26.879 47.246
C 28.078 26.477 46.556
C 31.677 27.725 46.329
H 32.374 27.531 45.479
H 31.554 28.814 46.51 
H 32.118 27.339 47.229
C 29.552 27.284 48.705
H 29.137 26.664 49.496
H 30.557 27.129 49.039
C 29.376 28.793 49.011
H 29.992 29.327 48.362
H 28.313 28.905 48.77 
H 29.59  28.929 50.041
N 25.515 25.852 45.029
C 25.592 26.042 46.402
C 24.234 25.999 46.92 
C 23.424 25.54  45.854
C 24.264 25.498 44.761
C 23.851 26.308 48.38 
H 23.032 27.005 48.446
H 23.58  25.49  49.025
H 24.707 26.813 48.836
C 22.056 25.2   45.568
O 21.101 25.118 46.353
C 22.051 25.081 43.97 
H 21.47  25.979 43.645
C 21.492 23.704 43.651
O 22.06  22.601 43.734
O 20.213 23.847 43.077
C 19.555 22.573 42.581
H 18.521 22.688 42.215
H 20.149 22.247 41.818
H 19.475 21.98  43.457
C 19.388 27.715 37.049
H 20.047 27.91  36.16 
H 19.289 28.66  37.634
C 17.993 27.251 36.616
H 17.992 26.767 35.642
C 16.861 27.318 37.277
C 16.801 27.736 38.71 
H 15.948 27.174 39.129
H 17.69  27.501 39.337
H 16.563 28.8   38.698
C 15.536 26.888 36.577
H 15.73  26.804 35.457
H 14.867 27.721 36.735
C 14.802 25.67  37.224
H 13.839 26.024 37.639
H 15.253 25.255 38.09 
C 14.781 24.505 36.25 
H 15.148 23.576 36.799
H 15.485 24.69  35.42 
C 13.486 24.031 35.562
H 12.781 23.688 36.364
C 13.705 22.79  34.703
H 12.71  22.526 34.349
H 14.519 23.073 33.974
H 14.113 22.036 35.344
C 12.898 25.212 34.763
H 12.817 26.013 35.53 
H 11.9   24.981 34.475
C 13.765 25.907 33.682
H 14.598 25.248 33.608
H 13.917 26.889 33.904
C 13.112 25.906 32.264
H 12.852 26.93  32.013
H 12.248 25.279 32.351
C 13.957 25.346 31.063
H 14.494 24.583 31.541
C 14.918 26.367 30.527
H 14.398 27.146 30.019
H 15.436 26.767 31.362
H 15.602 25.834 29.858
C 12.953 24.765 30.008
H 12.323 25.568 29.63 
H 12.32  24.029 30.501
C 13.549 24.041 28.838
H 13.314 22.934 28.688
H 14.645 24.157 28.925
C 12.999 24.524 27.471
H 13.68 24.33 26.63
H 12.752 25.592 27.608
C 11.625 23.954 27.028
H 11.104 23.719 27.924
C 11.907 22.593 26.211
H 12.489 21.911 26.845
H 10.921 22.128 26.046
H 12.278 22.642 25.202
C 10.765 24.853 26.222
H  9.713 24.511 26.433
H 10.944 25.972 26.477
H 10.871 24.903 25.118
