137

Mg 29.565 31.143 34.454
C 29.989 27.784 33.838
C 27.216 31.172 31.874
H 26.558 31.249 31.052
C 29.06  34.455 34.945
H 28.88  35.501 35.156
C 31.829 31.011 36.909
H 32.606 30.943 37.597
N 28.71  29.558 32.986
C 29.113 28.293 32.876
C 28.415 27.649 31.652
H 29.229 27.284 30.991
C 27.627 28.839 30.998
H 26.59  28.632 30.929
C 27.807 29.929 32.02 
C 28.18  29.285 29.615
H 29.21  29.602 29.734
H 28.163 28.609 28.777
H 27.639 30.097 29.192
C 27.602 26.403 32.101
H 26.78  26.887 32.65 
H 28.162 25.786 32.826
C 27.052 25.428 31.047
H 25.963 25.688 30.969
H 27.606 25.678 30.145
C 27.138 23.884 31.311
O 28.087 23.133 31.191
O 25.899 23.361 31.639
N 28.411 32.566 33.565
C 27.486 32.376 32.535
C 26.931 33.639 32.136
C 27.372 34.539 33.05 
C 28.313 33.84  33.886
C 25.834 33.862 31.05 
H 25.32  32.912 30.996
H 25.023 34.623 31.326
H 26.398 34.109 30.17 
C 26.887 35.894 33.302
H 26.875 36.239 34.334
C 26.579 36.844 32.357
H 26.587 36.723 31.276
H 26.334 37.858 32.776
N 30.362 32.49  35.749
C 29.963 33.807 35.833
C 30.831 34.419 36.836
C 31.543 33.362 37.443
C 31.238 32.219 36.692
C 30.836 35.884 37.211
H 29.835 36.226 37.076
H 30.954 36.091 38.288
H 31.441 36.586 36.534
C 32.436 33.475 38.617
H 33.397 33.085 38.343
H 32.585 34.493 38.832
C 31.927 32.878 39.95 
H 32.661 32.857 40.797
H 31.011 33.415 40.175
H 31.664 31.827 39.711
N 30.653 29.81  35.285
C 31.588 29.846 36.232
C 32.166 28.586 36.415
C 31.558 27.769 35.462
C 30.633 28.53  34.8  
C 33.328 28.31  37.359
H 33.321 29.117 38.145
H 33.16  27.297 37.781
H 34.325 28.354 36.89 
C 31.716 26.429 34.937
O 32.463 25.491 35.156
C 30.614 26.408 33.839
H 29.875 25.655 34.14 
C 31.32  26.08  32.592
O 32.351 26.616 32.129
O 30.798 25.016 32.061
C 31.543 24.464 30.971
H 30.994 23.498 30.585
H 31.609 25.176 30.145
H 32.483 24.229 31.234
C 25.85  21.921 31.432
H 26.703 21.407 31.872
H 25.924 21.724 30.375
C 24.424 21.389 31.792
H 23.717 22.122 31.375
C 23.929 20.305 32.414
C 24.845 19.323 32.977
H 24.847 18.447 32.261
H 25.828 19.805 33.164
H 24.431 18.978 33.931
C 22.43 20.01 32.73
H 21.881 20.875 32.998
H 22.353 19.397 33.632
C 21.915 19.183 31.505
H 22.692 18.453 31.268
H 21.717 19.771 30.672
C 20.639 18.449 31.798
H 19.835 18.847 31.211
H 20.425 18.637 32.855
C 20.747 16.907 31.396
H 21.143 16.852 30.406
C 19.281 16.317 31.232
H 19.349 15.264 30.969
H 18.808 16.27  32.225
H 18.682 16.894 30.586
C 21.728 15.928 32.165
H 22.754 16.157 31.969
H 21.54  14.951 31.62 
C 21.45  15.79  33.738
H 21.095 14.758 33.799
H 20.569 16.398 33.902
C 22.791 16.031 34.513
H 22.389 16.669 35.253
H 23.401 16.747 33.996
C 23.596 14.931 35.218
H 22.955 14.158 35.713
C 24.488 15.469 36.299
H 24.738 14.662 37.013
H 25.417 15.985 36.01 
H 23.985 16.223 36.871
C 24.457 14.035 34.354
H 24.834 13.268 35.026
H 25.354 14.562 34.084
C 23.781 13.372 33.137
H 23.732 13.939 32.186
H 22.744 13.303 33.406
C 24.213 11.931 32.839
H 23.544 11.19  33.214
H 25.116 11.793 33.331
C 24.578 11.614 31.373
H 25.41  12.361 30.988
C 23.355 11.669 30.462
H 23.579 11.499 29.441
H 22.71  10.913 30.869
H 22.865 12.664 30.457
C 25.128 10.147 31.18 
H 25.689 10.041 30.225
H 25.799  9.989 32.069
H 24.414  9.309 31.246
