137

Mg 28.465 32.517 38.219
C 26.02  30.948 40.019
C 26.165 34.496 36.595
H 25.355 35.083 36.224
C 31.004 34.285 36.839
H 31.809 34.73  36.309
C 30.788 30.407 39.652
H 31.544 29.739 40.047
N 26.349 32.62  38.222
C 25.543 31.899 39.116
C 24.073 32.181 38.844
H 23.646 31.2   38.526
C 24.158 33.25  37.678
H 23.655 34.176 37.92 
C 25.615 33.535 37.509
C 23.461 32.797 36.43 
H 22.47  32.676 36.615
H 23.679 33.494 35.59 
H 23.787 31.779 36.101
C 23.395 32.755 40.083
H 23.868 33.701 40.359
H 23.552 32.085 40.948
C 21.929 32.962 39.943
H 21.6   32.618 38.945
H 21.349 32.394 40.725
C 21.393 34.417 39.98 
O 21.482 35.074 40.994
O 21.014 34.931 38.759
N 28.549 34.219 37.012
C 27.518 34.817 36.423
C 28.023 35.857 35.521
C 29.415 35.69  35.531
C 29.748 34.731 36.512
C 27.209 36.895 34.712
H 26.921 36.379 33.768
H 26.38  37.29  35.339
H 27.863 37.67  34.415
C 30.347 36.469 34.66 
H 30.174 37.484 34.311
C 31.52  35.959 34.219
H 31.82  34.89  34.412
H 32.232 36.422 33.485
N 30.52  32.44  38.367
C 31.371 33.213 37.635
C 32.739 32.702 37.78 
C 32.659 31.641 38.63 
C 31.266 31.409 38.815
C 33.971 33.255 37.152
H 34.788 33.269 37.9  
H 34.309 32.66  36.355
H 33.71  34.263 36.957
C 33.834 30.857 39.113
H 33.783 29.796 38.86 
H 34.797 31.231 38.72 
C 33.972 31.011 40.656
H 34.184 32.055 40.929
H 32.95  30.784 41.067
H 34.701 30.319 41.057
N 28.506 31.043 39.644
C 29.455 30.278 40.166
C 28.906 29.374 41.127
C 27.508 29.592 41.098
C 27.351 30.627 40.182
C 29.67  28.523 42.036
H 30.675 28.809 42.055
H 29.301 28.57  43.04 
H 29.634 27.461 41.762
C 26.232 29.245 41.691
O 26.003 28.382 42.532
C 25.216 29.98  40.928
H 24.546 30.302 41.78 
C 24.446 28.934 40.272
O 24.923 28.078 39.542
O 23.106 29.077 40.579
C 22.125 28.107 40.024
H 21.578 27.692 40.882
H 21.415 28.454 39.233
H 22.557 27.256 39.528
C 20.768 36.377 38.834
H 21.711 36.979 39.085
H 19.98  36.663 39.553
C 20.271 36.859 37.537
H 19.245 37.088 37.551
C 20.854 36.91  36.295
C 22.313 36.574 36.159
H 22.859 37.48  36.015
H 22.667 36.065 36.985
H 22.473 35.909 35.28 
C 20.111 37.321 35.057
H 19.316 36.55  34.87 
H 20.796 37.304 34.194
C 19.484 38.715 35.035
H 19.641 39.181 34.103
H 20.04  39.381 35.734
C 18.015 38.68  35.511
H 17.988 39.271 36.44 
H 17.681 37.671 35.675
C 16.97  39.294 34.627
H 17.344 40.314 34.401
C 15.561 39.342 35.331
H 15.505 39.94  36.249
H 14.909 39.819 34.58 
H 15.115 38.369 35.503
C 16.922 38.671 33.227
H 17.991 38.737 32.801
H 16.235 39.246 32.595
C 16.387 37.246 33.171
H 15.361 37.267 32.887
H 16.363 36.776 34.152
C 17.072 36.292 32.127
H 17.456 35.459 32.7  
H 17.85  36.699 31.542
C 16.094 35.696 30.998
H 15.163 35.605 31.48 
C 16.511 34.286 30.673
H 15.663 33.815 30.248
H 17.265 34.238 29.957
H 16.778 33.729 31.556
C 16.018 36.495 29.745
H 17.017 36.472 29.241
H 15.949 37.556 29.964
C 14.848 36.119 28.789
H 14.227 37.051 28.751
H 14.196 35.341 29.112
C 15.308 35.793 27.385
H 16.405 35.954 27.243
H 14.832 36.528 26.69 
C 14.995 34.347 26.858
H 15.361 33.556 27.484
C 15.667 34.154 25.472
H 15.635 33.038 25.247
H 14.999 34.671 24.729
H 16.706 34.536 25.465
C 13.524 34.117 26.74 
H 13.123 34.76  26.005
H 13.338 33.096 26.515
H 13.043 34.27  27.714
