137

Mg 24.567 27.09  40.826
C 22.868 24.389 39.51 
C 26.566 26.909 37.929
H 27.213 26.895 37.026
C 26.462 29.644 41.966
H 27.089 30.42  42.413
C 22.721 27.037 43.657
H 22.056 26.922 44.501
N 24.559 25.99  38.848
C 23.812 24.846 38.621
C 24.035 24.29  37.241
H 24.107 23.276 37.585
C 25.332 25.023 36.771
H 25.194 25.57  35.794
C 25.482 26.081 37.918
C 26.527 24.043 36.452
H 26.76  23.372 37.264
H 26.243 23.412 35.614
H 27.325 24.723 36.081
C 22.857 24.393 36.281
H 22.686 25.431 36.131
H 22.023 24.022 36.784
C 22.898 23.746 34.895
H 23.932 23.646 34.601
H 22.457 22.72  35.096
C 22.221 24.431 33.76 
O 22.714 25.342 33.069
O 20.87  24.12  33.765
N 26.242 28.111 40.091
C 26.95  27.856 38.892
C 28.042 28.756 38.842
C 28.058 29.502 40.027
C 26.855 29.121 40.772
C 29.004 28.865 37.768
H 29.883 28.204 37.896
H 28.643 28.616 36.795
H 29.369 29.864 37.77 
C 29.045 30.574 40.449
H 30.012 30.41  40.205
C 28.856 31.797 40.938
H 27.892 32.17  41.253
H 29.7   32.541 40.996
N 24.531 28.229 42.59 
C 25.442 29.232 42.866
C 25.166 29.643 44.241
C 24.095 28.892 44.75 
C 23.732 28.008 43.673
C 25.927 30.774 44.9  
H 25.482 31.075 45.858
H 26.94  30.334 45.16 
H 25.851 31.714 44.344
C 23.453 28.997 46.12 
H 23.385 28.02  46.444
H 24.162 29.506 46.746
C 22.12  29.684 46.337
H 21.472 29.241 47.094
H 22.344 30.722 46.465
H 21.648 29.611 45.415
N 23.047 26.026 41.482
C 22.376 26.126 42.624
C 21.314 25.099 42.653
C 21.495 24.338 41.519
C 22.53  24.972 40.778
C 20.331 24.861 43.656
H 20.725 24.672 44.613
H 19.711 25.745 43.757
H 19.647 24.032 43.401
C 21.014 23.242 40.81 
O 20.122 22.437 40.991
C 21.781 23.261 39.447
H 21.087 23.38  38.629
C 22.462 21.978 39.402
O 23.322 21.648 40.179
O 22.11  21.213 38.395
C 22.501 19.781 38.414
H 22.111 19.21  37.53 
H 23.566 19.612 38.49 
H 22.006 19.297 39.244
C 20.004 24.824 32.846
H 20.18  24.598 31.757
H 20.332 25.88  32.999
C 18.6   24.547 33.423
H 18.343 24.881 34.448
C 17.579 23.82  32.854
C 17.631 23.039 31.559
H 17.235 21.968 31.713
H 16.881 23.519 30.936
H 18.707 22.995 31.218
C 16.21  23.752 33.562
H 16.233 24.419 34.429
H 16.009 22.707 33.925
C 14.954 24.148 32.758
H 14.84  23.486 31.931
H 15.049 25.092 32.233
C 13.696 24.232 33.772
H 14.06  23.992 34.823
H 12.988 23.399 33.501
C 12.795 25.538 33.798
H 13.498 26.416 33.906
C 11.636 25.528 34.828
H 11.039 26.495 34.845
H 10.981 24.663 34.791
H 12.098 25.526 35.858
C 12.205 25.934 32.37 
H 13.    26.003 31.595
H 11.856 26.916 32.604
C 10.963 25.102 31.903
H 10.503 24.546 32.667
H 11.399 24.348 31.311
C  9.944 25.963 31.114
H 10.33  26.978 30.986
H  8.963 26.019 31.618
C  9.602 25.367 29.71 
H 10.559 24.962 29.336
C  8.888 26.365 28.751
H  8.022 26.709 29.252
H  9.543 27.163 28.517
H  8.586 25.959 27.858
C  8.691 24.095 29.879
H  7.651 24.512 30.019
H  8.927 23.568 30.792
C  8.767 23.059 28.788
H  9.374 23.466 28.004
H  7.765 22.804 28.473
C  9.365 21.712 29.278
H  8.611 21.274 29.908
H 10.264 21.824 29.834
C  9.781 20.585 28.198
H 10.641 20.98  27.592
C  8.801 20.4   27.004
H  8.669 21.235 26.362
H  8.985 19.475 26.362
H  7.861 20.122 27.483
C 10.244 19.273 28.936
H 10.576 18.775 28.029
H 11.099 19.367 29.632
H  9.431 18.626 29.351
