137

Mg 23.939 25.749 36.942
C 22.009 22.955 37.827
C 24.522 24.272 33.942
H 24.637 23.92  32.892
C 25.978 28.325 36.349
H 26.621 29.177 35.999
C 23.367 27.131 40.212
H 23.239 27.535 41.165
N 23.308 23.845 35.971
C 22.55  22.853 36.555
C 22.275 21.688 35.545
H 22.571 20.707 36.031
C 23.262 22.088 34.413
H 22.749 22.205 33.451
C 23.737 23.521 34.799
C 24.5   21.121 34.292
H 25.018 21.288 35.241
H 24.127 20.087 34.304
H 25.301 21.204 33.558
C 20.766 21.649 35.225
H 20.465 22.634 35.057
H 20.203 21.202 36.047
C 20.398 20.693 34.117
H 21.283 20.057 34.04 
H 19.545 20.05  34.425
C 19.963 21.292 32.753
O 20.289 22.375 32.331
O 19.219 20.392 32.07 
N 24.983 26.286 35.373
C 25.055 25.571 34.158
C 25.95  26.283 33.218
C 26.386 27.462 33.982
C 25.81  27.375 35.304
C 26.4   25.857 31.758
H 25.696 26.236 31.011
H 27.457 26.019 31.474
H 26.402 24.763 31.742
C 27.297 28.472 33.439
H 28.023 28.846 34.185
C 27.348 28.883 32.167
H 26.616 28.489 31.421
H 28.094 29.634 31.863
N 24.576 27.37  38.082
C 25.387 28.353 37.6  
C 25.631 29.346 38.61 
C 24.849 29.081 39.72 
C 24.211 27.808 39.356
C 26.453 30.629 38.297
H 27.453 30.216 37.901
H 25.898 31.196 37.554
H 26.675 31.21  39.207
C 24.628 30.034 40.846
H 24.891 29.543 41.777
H 25.253 30.917 40.858
C 23.277 30.609 40.833
H 22.453 29.964 40.638
H 23.088 31.062 41.783
H 23.243 31.484 40.124
N 22.94  25.21  38.672
C 22.858 25.816 39.921
C 22.171 24.914 40.797
C 21.68  23.821 40.003
C 22.238 23.988 38.747
C 21.95  25.213 42.33 
H 21.332 24.478 42.778
H 22.89  25.37  42.952
H 21.327 26.121 42.413
C 20.869 22.638 39.983
O 20.056 22.233 40.755
C 21.178 21.962 38.595
H 20.158 21.833 38.19 
C 21.932 20.734 38.942
O 23.099 20.583 38.766
O 21.038 19.77  39.309
C 21.676 18.436 39.5  
H 20.927 17.745 39.838
H 22.128 18.035 38.643
H 22.469 18.429 40.261
C 18.909 20.917 30.705
H 19.833 21.237 30.171
H 18.343 21.884 30.893
C 18.039 19.887 30.087
H 18.649 19.212 29.547
C 16.7  19.72 30.13
C 15.709 20.557 30.844
H 15.343 20.065 31.758
H 16.058 21.598 30.943
H 14.782 20.646 30.223
C 16.045 18.621 29.288
H 16.809 18.323 28.555
H 15.203 19.052 28.798
C 15.686 17.258 30.036
H 15.147 17.539 30.958
H 16.703 16.741 30.265
C 14.879 16.36  29.169
H 15.378 15.407 29.115
H 15.098 16.794 28.159
C 13.387 16.315 29.476
H 13.295 15.895 30.479
C 12.606 15.364 28.526
H 11.541 15.425 28.783
H 12.568 15.805 27.495
H 12.959 14.3   28.597
C 12.633 17.734 29.43 
H 12.906 18.372 30.339
H 11.642 17.455 29.676
C 12.744 18.609 28.204
H 13.429 18.178 27.422
H 13.157 19.515 28.599
C 11.435 18.78  27.441
H 10.64  18.085 27.749
H 11.623 18.586 26.414
C 10.863 20.227 27.682
H 11.669 20.873 27.448
C 10.34  20.462 29.134
H  9.827 21.39  29.177
H  9.695 19.616 29.386
H 11.229 20.541 29.742
C  9.782 20.492 26.615
H  9.299 21.461 26.743
H  8.946 19.742 26.704
C 10.172 20.463 25.042
H 11.19  20.227 25.044
H  9.88  21.377 24.562
C  9.359 19.334 24.246
H  8.384 19.296 24.605
H  9.822 18.4   24.533
C  9.271 19.363 22.705
H  8.827 20.377 22.552
C  8.281 18.343 22.096
H  8.273 17.394 22.592
H  7.275 18.661 22.188
H  8.502 18.099 21.088
C 10.493 19.432 21.861
H 10.414 19.416 20.795
H 11.08  20.369 22.093
H 11.2   18.655 22.1  
