137

Mg 30.784 28.857 36.89 
C 27.961 28.702 39.022
C 28.555 29.125 34.224
H 27.924 29.268 33.362
C 33.3   29.607 34.837
H 34.097 30.113 34.243
C 32.752 28.958 39.657
H 33.414 29.196 40.515
N 28.54  28.913 36.641
C 27.625 28.867 37.644
C 26.205 29.019 37.134
H 25.753 28.124 37.481
C 26.334 28.97  35.578
H 25.935 29.898 35.109
C 27.886 28.989 35.438
C 25.553 27.716 35.024
H 24.51  27.884 35.097
H 25.818 27.581 33.952
H 25.922 26.837 35.566
C 25.35  30.191 37.615
H 25.378 30.995 36.966
H 25.958 30.666 38.365
C 23.807 29.991 37.978
H 23.67  28.927 38.242
H 23.644 30.549 38.917
C 22.74  30.354 36.987
O 21.897 31.31  37.094
O 22.989 29.754 35.79 
N 30.92  29.139 34.855
C 29.935 29.195 33.925
C 30.477 29.324 32.634
C 31.825 29.593 32.803
C 32.126 29.466 34.2  
C 29.672 29.29  31.3  
H 28.833 28.614 31.521
H 29.318 30.284 31.08 
H 30.239 28.946 30.399
C 32.848 29.809 31.791
H 33.794 29.286 31.904
C 32.624 30.38  30.618
H 31.672 30.684 30.285
H 33.417 30.411 29.861
N 32.77  29.134 37.196
C 33.657 29.497 36.207
C 35.006 29.663 36.781
C 34.884 29.395 38.182
C 33.408 29.191 38.421
C 36.163 29.921 35.982
H 36.489 31.015 36.103
H 36.943 29.312 36.417
H 36.055 29.57  34.946
C 35.93  29.41  39.306
H 35.778 28.638 39.992
H 36.871 29.249 38.835
C 35.925 30.771 39.987
H 36.337 31.472 39.241
H 34.861 31.064 40.227
H 36.338 30.704 41.011
N 30.455 28.9   38.892
C 31.372 28.888 39.916
C 30.723 28.88  41.218
C 29.359 28.864 40.859
C 29.229 28.783 39.493
C 31.406 28.837 42.61 
H 30.701 28.9   43.467
H 32.026 27.997 42.784
H 32.127 29.659 42.741
C 28.103 28.721 41.468
O 27.726 28.541 42.611
C 27.071 28.744 40.226
H 26.527 29.663 40.332
C 26.232 27.481 40.387
O 26.57  26.384 40.122
O 24.893 27.865 40.643
C 23.817 26.829 40.537
H 22.935 27.333 40.007
H 23.948 25.943 39.88 
H 23.598 26.604 41.544
C 21.998 30.216 34.743
H 22.071 31.293 34.656
H 20.968 29.992 35.006
C 22.406 29.424 33.459
H 23.4   29.719 33.016
C 21.755 28.356 32.965
C 20.353 27.934 33.308
H 19.722 27.814 32.427
H 20.463 27.002 33.852
H 19.857 28.622 33.992
C 22.271 27.708 31.697
H 23.027 28.3   31.239
H 21.432 27.558 31.004
C 22.936 26.37  32.043
H 22.653 25.875 32.943
H 23.992 26.604 31.979
C 22.728 25.318 30.991
H 23.74  25.102 30.618
H 22.242 25.733 30.117
C 22.108 23.943 31.418
H 22.684 23.756 32.285
C 22.531 22.781 30.475
H 23.641 22.823 30.346
H 22.279 21.806 30.899
H 22.005 22.928 29.51 
C 20.591 23.92  31.745
H 20.393 24.435 32.694
H 20.228 22.972 32.096
C 19.572 24.327 30.611
H 19.919 23.965 29.677
H 19.509 25.387 30.5  
C 18.121 23.732 30.86 
H 18.132 23.1   31.748
H 17.87  23.152 30.054
C 16.971 24.799 31.026
H 17.054 25.6   30.274
C 16.982 25.578 32.366
H 17.063 24.892 33.211
H 17.976 26.085 32.435
H 16.149 26.28  32.44 
C 15.573 24.145 30.739
H 15.374 23.374 31.487
H 15.686 23.607 29.79 
C 14.318 24.994 30.546
H 14.143 24.773 29.491
H 14.672 25.988 30.637
C 13.088 24.615 31.437
H 13.144 23.545 31.674
H 12.265 24.786 30.672
C 12.8   25.337 32.74 
H 13.729 25.44  33.298
C 11.63  24.543 33.406
H 11.857 23.518 33.539
H 11.299 24.964 34.389
H 10.835 24.569 32.605
C 12.408 26.754 32.439
H 12.005 27.164 33.337
H 13.22  27.365 32.005
H 11.654 26.955 31.648
