137

Mg 21.404 19.859 32.297
C 24.569 19.299 30.992
C 22.409 23.052 33.112
H 22.782 24.05  33.409
C 18.306 20.597 33.441
H 17.375 20.85  33.874
C 20.414 16.778 31.364
H 20.293 15.746 31.157
N 23.299 21.026 32.075
C 24.448 20.641 31.447
C 25.508 21.783 31.34 
H 26.315 21.436 31.924
C 24.748 22.979 32.018
H 24.622 23.818 31.366
C 23.388 22.324 32.406
C 25.526 23.457 33.325
H 26.44  24.063 33.14 
H 24.874 23.944 33.996
H 25.819 22.616 33.909
C 25.848 22.114 29.843
H 25.034 22.533 29.225
H 25.972 21.117 29.337
C 27.157 22.824 29.677
H 27.786 22.714 30.579
H 27.728 22.328 28.925
C 27.213 24.233 29.205
O 28.131 24.771 28.613
O 26.016 24.822 29.561
N 20.497 21.527 33.08 
C 21.11  22.704 33.368
C 20.2   23.596 34.091
C 18.971 22.913 34.191
C 19.185 21.643 33.523
C 20.513 25.014 34.571
H 21.338 24.998 35.3  
H 20.8   25.669 33.691
H 19.514 25.401 34.93 
C 17.752 23.223 34.977
H 16.778 22.976 34.618
C 17.844 23.618 36.269
H 18.789 23.893 36.745
H 16.941 23.844 36.841
N 19.584 18.861 32.249
C 18.421 19.305 32.814
C 17.42  18.253 32.709
C 18.011 17.195 31.944
C 19.39  17.619 31.829
C 16.018 18.416 33.294
H 16.078 18.878 34.3  
H 15.455 19.046 32.607
H 15.588 17.368 33.45 
C 17.381 15.825 31.576
H 17.86  15.086 32.126
H 16.315 15.815 31.822
C 17.511 15.61  29.998
H 17.08  14.673 29.549
H 17.124 16.477 29.451
H 18.595 15.506 29.791
N 22.215 18.372 31.362
C 21.731 17.064 31.146
C 22.704 16.283 30.514
C 23.842 17.094 30.428
C 23.495 18.352 31.007
C 22.512 14.865 30.121
H 23.274 14.496 29.381
H 22.633 14.157 30.977
H 21.51  14.774 29.688
C 25.268 17.197 30.132
O 26.085 16.309 29.787
C 25.75  18.542 30.513
H 26.232 19.002 29.635
C 26.772 18.431 31.617
O 26.751 17.718 32.592
O 27.69  19.41  31.382
C 28.71  19.537 32.401
H 29.217 18.656 32.684
H 29.439 20.268 32.075
H 28.165 20.022 33.243
C 25.826 26.226 29.21 
H 25.748 26.389 28.092
H 26.695 26.72  29.704
C 24.511 26.724 29.791
H 24.353 26.306 30.745
C 23.593 27.505 29.236
C 23.63  27.979 27.748
H 22.642 27.81  27.254
H 23.778 29.05  27.888
H 24.4   27.676 26.99 
C 22.184 27.688 29.89 
H 22.121 26.983 30.747
H 21.415 27.429 29.196
C 21.979 29.053 30.548
H 22.852 29.709 30.302
H 21.813 29.009 31.639
C 20.868 29.767 29.774
H 20.634 29.21  28.857
H 21.163 30.786 29.459
C 19.455 30.016 30.565
H 19.605 30.387 31.598
C 18.66  28.658 30.733
H 18.317 28.434 29.741
H 19.26  27.854 31.143
H 17.738 28.837 31.265
C 18.574 31.095 29.828
H 17.532 31.165 30.253
H 18.44  30.772 28.773
C 19.215 32.487 29.866
H 19.719 32.564 28.97 
H 19.963 32.589 30.64 
C 18.195 33.619 29.805
H 17.25  33.267 30.156
H 18.114 33.957 28.762
C 18.502 34.855 30.703
H 19.541 34.904 30.798
C 17.833 34.71  32.041
H 18.168 35.556 32.614
H 16.756 34.618 31.925
H 17.988 33.771 32.575
C 18.03  36.186 29.957
H 17.032 36.011 29.699
H 18.346 36.121 28.913
C 18.181 37.581 30.613
H 18.67  38.203 29.915
H 18.923 37.522 31.419
C 16.843 38.137 31.228
H 16.854 37.97  32.342
H 15.939 37.553 30.847
C 16.626 39.671 30.958
H 17.607 40.153 31.186
C 15.521 40.319 31.846
H 15.64  41.445 31.829
H 14.596 40.064 31.374
H 15.453 39.855 32.906
C 16.341 40.053 29.452
H 15.277 39.768 29.179
H 16.404 41.109 29.244
H 17.109 39.496 28.884
