137

Mg 29.413 30.195 34.535
C 28.727 29.817 37.935
C 26.068 29.319 33.933
H 24.949 29.055 33.772
C 29.988 30.07  31.207
H 30.219 30.008 30.205
C 32.577 30.992 35.198
H 33.505 31.423 35.559
N 27.655 29.621 35.758
C 27.607 29.567 37.199
C 26.299 29.225 37.721
H 26.349 28.192 38.236
C 25.385 28.962 36.429
H 24.579 29.72  36.493
C 26.407 29.316 35.273
C 24.917 27.542 36.349
H 24.179 27.381 35.614
H 25.692 26.781 36.161
H 24.507 27.464 37.367
C 25.754 30.249 38.744
H 25.604 31.214 38.29 
H 26.53  30.48  39.503
C 24.492 29.766 39.559
H 24.38  28.678 39.389
H 24.827 29.94  40.593
C 23.168 30.406 39.248
O 22.552 31.146 39.976
O 22.715 29.928 38.106
N 28.201 29.638 32.813
C 26.868 29.311 32.791
C 26.492 29.315 31.378
C 27.583 29.348 30.639
C 28.68  29.704 31.536
C 25.088 29.111 30.847
H 24.756 30.101 30.545
H 25.115 28.585 29.924
H 24.558 28.533 31.653
C 27.636 29.232 29.2  
H 26.766 29.678 28.719
C 28.639 28.677 28.464
H 29.572 28.238 28.882
H 28.611 28.675 27.38 
N 31.037 30.46  33.369
C 31.081 30.404 31.966
C 32.333 30.802 31.507
C 33.118 31.133 32.629
C 32.291 30.839 33.801
C 32.75  30.986 30.052
H 33.77  31.452 30.08 
H 32.892 30.024 29.519
H 32.041 31.564 29.457
C 34.523 31.709 32.754
H 35.067 31.198 33.493
H 34.975 31.618 31.809
C 34.551 33.19  33.094
H 35.576 33.44  33.232
H 34.033 33.791 32.354
H 34.044 33.365 34.082
N 30.407 30.452 36.23 
C 31.744 30.739 36.349
C 32.126 30.593 37.716
C 31.014 30.209 38.377
C 29.984 30.174 37.454
C 33.52  30.706 38.196
H 33.951 31.68  37.915
H 33.522 30.618 39.308
H 34.042 29.82  37.79 
C 30.493 29.777 39.643
O 31.077 29.614 40.697
C 28.975 29.496 39.444
H 28.374 30.092 40.094
C 28.664 28.024 39.703
O 29.112 27.034 39.113
O 27.582 27.894 40.489
C 27.024 26.558 40.562
H 27.672 25.972 41.22 
H 26.093 26.663 41.112
H 26.919 26.041 39.593
C 21.428 30.461 37.674
H 21.504 31.541 37.415
H 20.663 30.408 38.43 
C 21.149 29.611 36.457
H 21.719 28.634 36.401
C 20.22  29.826 35.513
C 19.253 31.06  35.537
H 19.392 31.641 34.637
H 18.218 30.877 35.526
H 19.456 31.607 36.455
C 20.166 28.941 34.286
H 20.907 28.107 34.369
H 20.446 29.522 33.421
C 18.797 28.278 34.109
H 18.2   28.497 35.01 
H 18.904 27.214 33.95 
C 18.069 28.84  32.87 
H 18.388 28.122 32.057
H 18.332 29.876 32.676
C 16.514 28.65  32.881
H 16.202 28.93  33.957
C 15.983 27.179 32.777
H 16.365 26.581 33.593
H 14.918 27.114 32.916
H 16.402 26.678 31.868
C 15.713 29.666 31.921
H 16.04  30.636 32.16 
H 14.693 29.484 32.102
C 16.026 29.633 30.379
H 16.748 28.785 30.24 
H 16.396 30.549 30.103
C 14.782 29.602 29.433
H 13.901 29.244 30.026
H 15.032 28.947 28.592
C 14.337 30.952 28.869
H 15.256 31.277 28.391
C 14.056 31.995 29.958
H 13.395 31.593 30.745
H 15.01  32.404 30.435
H 13.598 32.849 29.517
C 13.176 30.772 27.888
H 12.346 30.79  28.611
H 13.205 29.814 27.399
C 13.029 31.884 26.823
H 12.854 31.48  25.898
H 13.989 32.334 26.777
C 11.962 32.96  27.019
H 11.542 32.978 28.039
H 11.157 32.627 26.329
C 12.364 34.401 26.651
H 13.196 34.581 27.218
C 11.22  35.352 27.085
H 11.37  35.531 28.144
H 11.279 36.364 26.571
H 10.179 35.041 26.972
C 12.77  34.435 25.117
H 12.981 35.529 25.034
H 13.629 33.792 25.049
H 11.968 33.947 24.577
