137

Mg 29.074 28.818 37.492
C 28.733 26.247 39.763
C 28.18  26.637 35.012
H 28.072 25.832 34.275
C 29.529 31.219 35.224
H 29.667 31.924 34.397
C 30.736 30.67  39.895
H 31.291 31.278 40.568
N 28.384 26.813 37.457
C 28.369 25.92  38.453
C 27.957 24.545 37.933
H 28.602 23.692 38.228
C 27.866 24.653 36.442
H 26.902 24.405 36.012
C 28.179 26.097 36.297
C 28.876 23.651 35.753
H 29.921 23.827 36.039
H 28.591 22.564 36.026
H 28.737 23.618 34.658
C 26.484 24.168 38.516
H 25.874 24.955 38.179
H 26.579 24.456 39.553
C 25.997 22.809 38.189
H 26.523 22.325 37.355
H 26.083 22.233 39.152
C 24.562 22.685 37.688
O 23.681 23.546 37.912
O 24.484 21.579 36.95 
N 28.679 28.995 35.406
C 28.404 27.962 34.554
C 28.141 28.617 33.241
C 28.423 30.006 33.357
C 28.886 30.127 34.71 
C 27.604 27.838 32.045
H 27.15  26.939 32.319
H 26.827 28.462 31.609
H 28.421 27.705 31.332
C 28.431 31.199 32.405
H 28.476 32.188 32.952
C 28.316 31.143 31.068
H 28.296 30.195 30.607
H 28.28  32.028 30.395
N 29.876 30.71  37.608
C 29.98  31.551 36.555
C 30.506 32.893 37.012
C 30.719 32.752 38.367
C 30.429 31.315 38.681
C 30.857 33.987 36.065
H 31.66  34.662 36.416
H 30.908 33.655 35.036
H 30.033 34.719 35.975
C 31.385 33.72  39.367
H 32.34  33.234 39.691
H 31.621 34.574 38.781
C 30.508 33.963 40.583
H 30.751 34.759 41.283
H 29.452 34.095 40.316
H 30.671 33.165 41.23 
N 29.723 28.594 39.418
C 30.308 29.42  40.318
C 30.393 28.785 41.606
C 29.792 27.561 41.414
C 29.381 27.492 40.077
C 30.946 29.402 42.837
H 30.454 30.361 43.08 
H 30.769 28.716 43.691
H 31.971 29.602 42.693
C 29.549 26.285 42.147
O 29.77  25.941 43.271
C 28.762 25.432 41.029
H 27.825 25.251 41.484
C 29.564 24.163 41.008
O 30.638 24.056 40.465
O 28.942 23.105 41.642
C 29.537 21.792 41.365
H 29.074 21.163 42.138
H 29.513 21.383 40.362
H 30.567 21.841 41.558
C 23.137 21.339 36.496
H 22.735 22.168 35.922
H 22.594 20.996 37.409
C 23.295 20.101 35.695
H 24.102 19.486 36.104
C 22.767 19.725 34.521
C 21.666 20.351 33.709
H 20.711 20.069 34.039
H 21.609 21.367 33.831
H 21.716 20.088 32.656
C 23.476 18.506 33.975
H 24.147 17.983 34.717
H 24.142 18.687 33.188
C 22.582 17.409 33.493
H 21.696 17.825 32.963
H 22.26  16.893 34.37 
C 23.342 16.451 32.589
H 24.372 16.455 32.954
H 23.283 16.806 31.542
C 22.885 14.999 32.828
H 23.133 14.793 33.868
C 23.869 14.002 32.17 
H 23.442 13.01  32.283
H 23.958 14.09  31.118
H 24.864 13.992 32.602
C 21.434 14.736 32.526
H 20.812 15.439 33.049
H 21.156 13.736 33.016
C 21.082 14.778 31.083
H 21.926 14.985 30.416
H 20.27  15.513 30.924
C 20.721 13.353 30.523
H 21.39  12.724 31.071
H 21.157 13.381 29.503
C 19.259 12.997 30.496
H 18.754 13.772 29.873
C 18.722 12.745 31.932
H 19.366 12.041 32.395
H 18.788 13.668 32.536
H 17.671 12.54  32.009
C 19.052 11.697 29.687
H 18.101 11.332 29.872
H 19.679 10.913 30.056
C 19.172 11.82  28.133
H 19.967 11.144 27.809
H 19.382 12.866 27.919
C 17.85  11.404 27.467
H 17.004 12.104 27.469
H 17.505 10.496 27.953
C 17.991 10.996 26.009
H 18.836 10.25  25.92 
C 18.567 12.173 25.124
H 17.897 13.027 25.282
H 19.595 12.437 25.311
H 18.362 11.822 24.115
C 16.705 10.402 25.462
H 16.574  9.405 25.925
H 15.805 10.995 25.675
H 16.743 10.244 24.454
