137

Mg 21.776 31.531 32.118
C 21.392 28.273 33.424
C 18.626 32.055 32.914
H 17.548 32.293 33.047
C 22.261 34.781 31.334
H 22.347 35.836 31.192
C 24.962 30.725 31.421
H 26.054 30.601 31.156
N 20.257 30.349 33.151
C 20.263 29.11  33.624
C 18.791 28.682 33.996
H 18.448 27.809 33.372
C 17.927 29.808 33.709
H 17.401 30.171 34.603
C 19.035 30.788 33.18 
C 16.83  29.579 32.626
H 17.409 29.191 31.741
H 16.126 28.841 32.978
H 16.315 30.403 32.181
C 18.788 28.125 35.456
H 19.041 28.96  36.073
H 19.461 27.247 35.615
C 17.467 27.615 35.962
H 16.947 27.227 35.116
H 17.708 26.747 36.551
C 16.611 28.481 36.877
O 16.71  28.615 38.092
O 15.849 29.269 36.057
N 20.588 33.224 32.202
C 19.298 33.181 32.416
C 18.708 34.464 32.117
C 19.748 35.255 31.631
C 20.896 34.415 31.721
C 17.208 34.674 32.106
H 16.927 35.555 31.545
H 16.663 33.812 31.623
H 16.865 34.713 33.106
C 19.836 36.588 31.036
H 20.622 36.771 30.334
C 19.197 37.768 31.428
H 18.376 37.803 32.258
H 19.488 38.764 31.004
N 23.389 32.649 31.296
C 23.428 33.969 31.248
C 24.813 34.336 30.982
C 25.574 33.102 30.883
C 24.659 32.093 31.186
C 25.295 35.762 30.794
H 26.273 35.899 30.356
H 24.603 36.257 30.112
H 25.389 36.431 31.685
C 27.057 32.877 30.613
H 27.215 31.964 30.127
H 27.518 33.692 30.054
C 27.956 32.954 31.903
H 29.031 32.759 31.757
H 27.898 33.93  32.319
H 27.505 32.419 32.666
N 23.026 29.849 32.29 
C 24.189 29.675 31.888
C 24.558 28.257 32.093
C 23.486 27.688 32.63 
C 22.55  28.703 32.786
C 25.766 27.47  31.635
H 25.689 27.039 30.622
H 26.683 27.973 31.891
H 25.752 26.522 32.225
C 22.891 26.457 33.062
O 23.341 25.346 32.877
C 21.527 26.812 33.707
H 21.474 26.638 34.819
C 20.532 25.973 33.006
O 20.202 26.161 31.849
O 20.047 24.907 33.753
C 19.242 23.892 33.067
H 18.186 24.102 32.898
H 19.774 23.456 32.148
H 19.225 23.17  33.85 
C 15.077 30.214 36.79 
H 15.622 30.784 37.517
H 14.246 29.642 37.256
C 14.369 31.077 35.709
H 13.707 30.489 35.052
C 14.605 32.345 35.36 
C 15.575 33.331 36.023
H 16.348 32.841 36.593
H 16.038 33.901 35.215
H 14.999 33.93  36.689
C 13.9   32.961 34.043
H 14.408 32.672 33.122
H 14.053 34.02  34.172
C 12.422 32.586 33.727
H 11.852 32.803 34.587
H 12.404 31.506 33.718
C 11.862 32.873 32.302
H 11.802 31.927 31.777
H 12.593 33.461 31.738
C 10.521 33.627 32.235
H  9.86  33.095 32.89 
C  9.881 33.622 30.829
H  8.898 34.101 30.745
H 10.49  34.305 30.183
H  9.882 32.615 30.455
C 10.559 35.146 32.789
H 10.827 35.009 33.781
H  9.537 35.426 32.77 
C 11.424 36.14  32.009
H 10.646 36.916 31.739
H 11.75  35.704 31.092
C 12.699 36.767 32.657
H 13.115 36.098 33.457
H 12.366 37.576 33.214
C 13.825 37.371 31.771
H 13.291 38.149 31.156
C 14.412 36.412 30.69 
H 14.579 35.543 31.222
H 13.72  36.24  29.878
H 15.269 36.856 30.159
C 14.904 38.21  32.596
H 15.851 38.269 31.971
H 15.197 37.515 33.406
C 14.508 39.568 33.19 
H 13.765 39.95  32.428
H 15.303 40.168 33.122
C 13.919 39.55  34.61 
H 14.113 38.64  35.173
H 12.84  39.576 34.418
C 14.358 40.76  35.443
H 14.081 41.666 34.807
C 15.865 40.68  35.94 
H 16.561 40.605 35.066
H 16.071 41.642 36.416
H 16.025 39.836 36.55 
C 13.421 40.944 36.705
H 13.713 41.746 37.338
H 12.434 41.159 36.309
H 13.323 39.977 37.225
