137

Mg 21.245 18.49  25.999
C 21.731 17.581 22.776
C 24.17  19.968 25.989
H 25.173 20.491 25.918
C 21.195 18.663 29.435
H 21.235 18.782 30.536
C 18.279 16.904 25.937
H 17.261 16.447 25.932
N 22.751 18.777 24.523
C 22.768 18.352 23.219
C 23.976 18.782 22.421
H 24.406 17.936 21.958
C 24.818 19.416 23.572
H 25.152 20.463 23.293
C 23.834 19.409 24.747
C 26.086 18.58  23.879
H 25.745 17.721 24.479
H 26.573 18.24  22.962
H 26.724 19.156 24.536
C 23.542 19.786 21.371
H 23.003 20.597 21.894
H 22.809 19.364 20.744
C 24.684 20.326 20.522
H 25.617 20.028 20.957
H 24.633 20.019 19.474
C 24.977 21.862 20.413
O 25.294 22.468 19.385
O 24.857 22.548 21.612
N 22.521 19.17  27.468
C 23.577 19.859 27.282
C 24.235 20.314 28.507
C 23.369 19.949 29.52 
C 22.331 19.226 28.829
C 25.518 21.076 28.537
H 25.572 21.651 29.388
H 26.333 20.302 28.576
H 25.578 21.662 27.616
C 23.328 20.099 30.97 
H 23.14  19.283 31.583
C 23.607 21.292 31.631
H 23.949 22.191 31.1  
H 23.611 21.344 32.695
N 19.925 17.953 27.436
C 20.121 18.101 28.747
C 18.92  17.653 29.462
C 18.006 17.287 28.493
C 18.708 17.37  27.233
C 18.712 17.637 30.934
H 18.04  16.835 31.224
H 19.687 17.442 31.504
H 18.365 18.615 31.179
C 16.561 16.789 28.749
H 16.403 15.867 28.167
H 16.402 16.587 29.815
C 15.514 17.774 28.286
H 14.534 17.473 28.52 
H 15.604 18.782 28.61 
H 15.617 17.762 27.149
N 20.211 17.34  24.66 
C 19.013 16.811 24.765
C 18.65  16.042 23.531
C 19.726 16.305 22.651
C 20.669 17.116 23.464
C 17.483 15.169 23.284
H 17.029 15.121 22.292
H 17.677 14.208 23.738
H 16.729 15.528 23.971
C 20.28  16.079 21.363
O 19.942 15.424 20.367
C 21.591 16.949 21.346
H 21.452 17.67  20.494
C 22.67  15.971 20.935
O 23.165 15.083 21.646
O 23.292 16.335 19.843
C 24.466 15.602 19.413
H 25.283 15.786 20.07 
H 24.253 14.5   19.536
H 24.762 15.817 18.363
C 25.364 23.948 21.562
H 24.986 24.595 20.788
H 26.468 23.918 21.691
C 24.925 24.584 22.889
H 25.652 24.378 23.606
C 23.806 25.352 23.124
C 22.714 25.552 22.175
H 22.484 24.79  21.446
H 21.795 25.502 22.741
H 22.98  26.473 21.624
C 23.556 26.019 24.48 
H 24.45  25.963 25.046
H 22.708 25.467 24.959
C 23.066 27.506 24.381
H 21.988 27.413 24.667
H 23.123 27.953 23.335
C 23.883 28.448 25.344
H 24.787 27.954 25.705
H 23.256 28.5   26.253
C 24.255 29.87  24.772
H 23.452 30.352 24.279
C 25.391 29.691 23.77 
H 26.354 29.569 24.26 
H 25.264 28.897 23.077
H 25.392 30.728 23.283
C 24.77  30.873 25.848
H 25.177 31.672 25.292
H 25.566 30.486 26.403
C 23.547 31.299 26.715
H 22.53  31.075 26.304
H 23.708 32.406 26.824
C 23.581 30.628 28.132
H 24.07  31.265 28.871
H 24.158 29.705 27.976
C 22.262 30.247 28.911
H 21.809 29.669 28.136
C 21.29  31.512 29.288
H 20.276 31.219 29.7  
H 21.87  32.065 30.062
H 21.206 32.05  28.381
C 22.595 29.433 30.213
H 23.039 30.08  30.921
H 23.294 28.612 29.859
C 21.384 28.66  30.845
H 21.499 27.537 30.845
H 20.55  29.096 30.309
C 21.357 28.874 32.369
H 20.721 29.724 32.596
H 22.371 29.123 32.67 
C 20.859 27.581 33.241
H 19.991 27.116 32.829
C 20.321 28.029 34.664
H 20.22  27.252 35.395
H 21.026 28.644 35.121
H 19.323 28.502 34.508
C 21.997 26.544 33.451
H 21.662 25.641 33.975
H 22.556 26.226 32.589
H 22.731 27.05  34.119
