137

Mg 28.288 31.156 33.607
C 27.52  27.955 32.727
C 29.272 31.745 30.349
H 29.55  31.912 29.319
C 29.475 34.207 34.404
H 29.836 35.225 34.741
C 27.596 30.384 36.907
H 27.179 30.271 37.933
N 28.295 29.998 31.776
C 27.964 28.669 31.658
C 27.913 28.147 30.24 
H 28.5   27.226 30.189
C 28.484 29.376 29.474
H 27.744 29.743 28.763
C 28.706 30.462 30.55 
C 29.871 29.165 28.699
H 30.57  28.619 29.323
H 29.62  28.398 27.928
H 30.321 29.996 28.128
C 26.508 27.629 29.704
H 25.719 28.349 29.81 
H 26.145 26.815 30.275
C 26.582 27.034 28.307
H 25.76  27.281 27.633
H 27.367 27.506 27.821
C 26.58  25.533 28.167
O 27.393 24.811 27.708
O 25.312 25.122 28.392
N 29.124 32.776 32.543
C 29.458 32.831 31.212
C 30.047 34.125 30.824
C 30.064 34.861 31.994
C 29.573 33.945 33.057
C 30.645 34.492 29.469
H 29.798 34.634 28.798
H 31.137 35.412 29.606
H 31.262 33.705 29.09 
C 30.477 36.233 32.137
H 31.379 36.498 31.67 
C 29.763 37.256 32.644
H 28.723 37.062 33.016
H 30.142 38.317 32.439
N 28.651 32.015 35.317
C 29.027 33.351 35.436
C 28.955 33.759 36.821
C 28.423 32.708 37.562
C 28.219 31.603 36.564
C 29.478 35.119 37.309
H 30.548 35.041 37.528
H 29.234 35.927 36.686
H 28.918 35.273 38.261
C 28.152 32.654 39.043
H 28.45  31.665 39.482
H 28.727 33.486 39.504
C 26.8   33.154 39.476
H 26.77  34.244 39.469
H 25.954 32.709 38.95 
H 26.803 32.924 40.499
N 27.828 29.503 34.684
C 27.464 29.32  35.984
C 26.931 28.025 36.2  
C 26.897 27.468 34.88 
C 27.461 28.409 34.034
C 26.468 27.464 37.504
H 27.374 27.185 38.048
H 25.88  28.165 38.082
H 25.841 26.637 37.363
C 26.546 26.28  34.16 
O 25.911 25.307 34.418
C 27.026 26.494 32.757
H 26.098 26.351 32.218
C 28.141 25.49  32.522
O 29.133 25.277 33.203
O 27.872 24.863 31.348
C 28.78  23.831 30.883
H 29.699 24.402 30.74 
H 29.008 22.97  31.588
H 28.352 23.491 30.   
C 25.102 23.675 28.253
H 25.656 23.168 29.045
H 25.468 23.288 27.24 
C 23.604 23.325 28.475
H 23.284 23.76  29.454
C 22.657 22.848 27.672
C 22.836 22.541 26.165
H 22.8   21.456 25.942
H 21.971 22.942 25.587
H 23.821 22.919 25.832
C 21.322 22.783 28.272
H 21.473 22.563 29.295
H 20.927 21.918 27.751
C 20.401 23.963 28.143
H 19.884 23.977 27.225
H 21.087 24.855 28.072
C 19.411 24.156 29.37 
H 19.534 25.192 29.799
H 19.589 23.432 30.134
C 17.871 24.08  28.937
H 17.56  24.866 28.248
C 16.953 24.262 30.197
H 17.184 23.625 31.03 
H 17.054 25.245 30.654
H 15.813 24.038 30.053
C 17.514 22.663 28.161
H 18.116 22.651 27.219
H 16.521 22.956 27.752
C 17.661 21.364 28.968
H 16.701 20.84  28.805
H 17.805 21.679 29.961
C 18.813 20.36  28.677
H 19.294 20.629 27.69 
H 18.238 19.515 28.357
C 19.818 20.008 29.881
H 20.154 20.902 30.494
C 21.031 19.211 29.234
H 20.494 18.42  28.667
H 21.554 19.796 28.435
H 21.67  18.721 29.892
C 19.172 19.098 30.906
H 19.983 18.677 31.466
H 18.775 18.194 30.455
C 18.306 19.739 32.026
H 18.35  20.8   31.937
H 18.733 19.428 32.97 
C 16.826 19.406 32.093
H 16.77  18.583 32.778
H 16.498 18.92  31.155
C 15.883 20.632 32.29 
H 16.138 21.475 31.625
C 16.155 21.357 33.641
H 15.417 22.218 33.779
H 16.082 20.67  34.473
H 17.214 21.681 33.67 
C 14.41  20.165 32.231
H 14.14  19.396 32.924
H 13.841 21.01  32.552
H 14.091 19.92  31.215
