137

Mg 26.351 28.375 38.78 
C 24.482 25.711 40.08 
C 26.982 26.527 35.97 
H 27.356 25.802 35.226
C 28.337 30.81  37.623
H 28.959 31.555 37.2  
C 25.559 30.135 41.454
H 25.149 30.827 42.153
N 25.711 26.47  38.115
C 24.946 25.477 38.79 
C 24.747 24.205 38.008
H 25.148 23.37  38.557
C 25.618 24.474 36.718
H 25.059 24.451 35.757
C 26.134 25.936 36.922
C 26.78  23.445 36.573
H 27.357 23.475 37.501
H 26.53  22.405 36.376
H 27.469 23.781 35.847
C 23.249 24.037 37.641
H 22.746 24.91  37.191
H 22.781 23.792 38.632
C 22.856 22.678 36.929
H 23.653 21.943 36.883
H 21.986 22.295 37.47 
C 22.286 22.836 35.511
O 22.175 23.885 34.906
O 21.766 21.619 34.995
N 27.535 28.571 37.093
C 27.67  27.777 36.023
C 28.477 28.384 34.961
C 28.904 29.623 35.469
C 28.293 29.686 36.771
C 28.668 27.722 33.601
H 29.703 27.811 33.291
H 28.422 26.616 33.599
H 28.01  28.075 32.887
C 29.66  30.76  34.838
H 29.868 31.697 35.459
C 30.031 30.819 33.588
H 29.711 30.028 32.835
H 30.466 31.69  33.063
N 26.952 30.128 39.5  
C 27.777 31.027 38.892
C 27.829 32.272 39.539
C 26.911 32.13  40.583
C 26.439 30.784 40.552
C 28.491 33.533 39.091
H 28.188 34.385 39.664
H 29.6   33.396 39.209
H 28.346 33.733 38.021
C 26.553 33.147 41.639
H 26.59  32.677 42.648
H 27.309 33.966 41.718
C 25.179 33.752 41.339
H 24.422 32.939 41.415
H 25.091 34.57  42.016
H 25.292 34.145 40.347
N 25.332 28.043 40.468
C 25.125 28.883 41.486
C 24.428 28.22  42.571
C 24.049 26.992 42.028
C 24.683 26.865 40.771
C 24.19  28.813 43.95 
H 25.116 28.963 44.488
H 23.554 29.682 43.766
H 23.528 28.108 44.486
C 23.355 25.755 42.299
O 22.634 25.358 43.157
C 23.541 24.982 41.015
H 22.571 25.046 40.504
C 23.909 23.6   41.457
O 24.881 23.339 42.179
O 22.908 22.686 41.104
C 23.162 21.28  41.558
H 23.119 21.108 42.618
H 22.51  20.529 41.089
H 24.1   20.834 41.194
C 20.947 21.657 33.77 
H 21.369 22.098 32.914
H 19.977 22.052 34.031
C 20.719 20.179 33.251
H 20.585 19.479 34.038
C 20.568 19.649 32.003
C 20.344 20.399 30.689
H 20.618 21.439 30.968
H 20.953 20.025 29.868
H 19.343 20.408 30.259
C 20.219 18.188 31.875
H 20.483 17.773 32.841
H 20.967 17.652 31.265
C 18.783 17.865 31.514
H 18.136 18.742 31.487
H 18.334 17.216 32.211
C 18.631 17.242 30.112
H 19.634 16.891 29.895
H 18.258 18.02  29.44 
C 17.77  15.988 30.056
H 17.961 15.368 31.034
C 18.091 15.112 28.877
H 17.775 15.696 28.018
H 19.146 14.922 28.822
H 17.582 14.156 28.976
C 16.185 16.386 30.136
H 15.885 16.703 31.158
H 15.699 15.384 29.989
C 15.526 17.383 29.232
H 16.325 17.712 28.574
H 15.258 18.3   29.811
C 14.479 16.797 28.354
H 13.577 16.407 28.852
H 14.904 15.881 27.961
C 14.12  17.703 27.165
H 14.94  18.369 26.93 
C 12.955 18.654 27.435
H 12.57  19.118 26.503
H 12.04  18.01  27.665
H 13.171 19.395 28.223
C 14.016 16.974 25.829
H 13.66  17.594 24.967
H 13.353 16.098 25.849
C 15.446 16.533 25.281
H 16.114 16.286 26.106
H 15.91  17.4   24.704
C 15.334 15.336 24.295
H 16.015 15.562 23.485
H 14.298 15.373 23.845
C 15.664 13.982 24.845
H 15.247 13.849 25.854
C 17.27  13.79  25.061
H 17.623 14.617 25.687
H 17.371 12.81  25.543
H 17.833 13.65  24.14 
C 15.155 12.841 23.995
H 14.242 12.464 24.418
H 14.918 13.16  22.966
H 15.766 11.999 23.974
