137

Mg 28.814 27.934 32.721
C 26.483 26.36  30.636
C 31.112 27.611 30.327
H 31.955 27.5   29.611
C 31.062 29.293 34.926
H 31.837 29.502 35.66 
C 26.381 28.301 35.085
H 25.601 28.525 35.865
N 28.725 27.324 30.67 
C 27.623 26.708 30.011
C 28.018 26.347 28.618
H 27.713 25.32  28.495
C 29.58  26.486 28.662
H 29.849 27.217 27.901
C 29.85  27.197 29.918
C 30.365 25.169 28.448
H 30.16  24.481 29.226
H 29.991 24.691 27.511
H 31.412 25.435 28.417
C 27.303 27.347 27.607
H 27.59  28.316 27.791
H 26.232 27.206 27.915
C 27.5   27.079 26.128
H 27.664 27.943 25.497
H 28.362 26.402 25.971
C 26.394 26.467 25.331
O 26.565 26.127 24.197
O 25.128 26.296 25.903
N 30.818 28.429 32.57 
C 31.614 28.241 31.493
C 33.009 28.753 31.801
C 32.936 29.184 33.168
C 31.559 28.952 33.653
C 34.077 28.778 30.829
H 33.719 29.136 29.87 
H 34.889 29.428 31.082
H 34.447 27.817 30.63 
C 33.962 29.953 33.908
H 33.562 30.738 34.583
C 35.305 29.814 33.845
H 35.763 28.96  33.327
H 36.014 30.508 34.379
N 28.732 28.651 34.69 
C 29.789 29.181 35.397
C 29.217 29.676 36.679
C 27.863 29.457 36.692
C 27.618 28.74  35.454
C 30.091 30.226 37.759
H 30.509 29.306 38.137
H 30.748 30.967 37.295
H 29.676 30.643 38.663
C 26.887 29.984 37.775
H 26.462 29.096 38.189
H 27.454 30.465 38.654
C 25.766 30.901 37.175
H 25.456 30.554 36.227
H 25.009 30.802 37.944
H 26.086 31.996 37.071
N 26.914 27.377 32.915
C 25.999 27.606 33.91 
C 24.655 27.196 33.49 
C 24.818 26.665 32.266
C 26.195 26.814 31.881
C 23.474 27.259 34.388
H 23.69  26.602 35.234
H 23.143 28.27  34.644
H 22.605 26.879 33.853
C 24.165 25.978 31.118
O 23.049 25.628 30.94 
C 25.249 25.661 30.065
H 24.887 25.929 29.081
C 25.382 24.2   30.121
O 25.361 23.53  31.122
O 25.518 23.615 28.888
C 25.656 22.135 28.859
H 26.    21.838 27.901
H 26.331 21.767 29.595
H 24.752 21.624 29.178
C 24.031 25.716 25.096
H 24.404 24.716 24.788
H 23.826 26.422 24.271
C 22.885 25.873 26.006
H 22.545 26.826 26.272
C 22.197 24.949 26.694
C 22.333 23.455 26.72 
H 22.998 23.085 25.988
H 22.641 23.036 27.669
H 21.385 23.066 26.377
C 20.96  25.395 27.54 
H 21.139 26.51  27.601
H 21.046 24.893 28.537
C 19.57  25.204 26.829
H 19.932 24.816 25.902
H 19.033 26.112 26.676
C 18.641 24.171 27.61 
H 19.288 23.67  28.298
H 18.397 23.414 26.866
C 17.245 24.614 28.157
H 16.695 24.974 27.284
C 17.345 25.787 29.173
H 16.379 26.029 29.65 
H 18.02  25.6   30.059
H 17.701 26.692 28.721
C 16.583 23.332 28.705
H 16.494 22.588 27.881
H 15.599 23.543 28.962
C 17.26  22.702 29.98 
H 18.099 23.353 30.336
H 17.611 21.711 29.653
C 16.247 22.445 31.13 
H 15.334 22.894 30.931
H 16.731 22.977 31.924
C 16.062 20.95  31.541
H 16.003 20.474 30.531
C 14.653 20.682 32.125
H 14.587 19.807 32.838
H 14.473 21.534 32.795
H 13.909 20.594 31.351
C 17.155 20.446 32.541
H 17.041 20.988 33.464
H 18.14  20.645 32.155
C 17.139 18.973 32.872
H 17.982 18.659 32.291
H 16.258 18.305 32.726
C 17.555 18.726 34.306
H 17.131 19.488 34.917
H 18.573 18.893 34.47 
C 17.308 17.288 34.872
H 17.453 16.552 34.084
C 15.833 17.119 35.332
H 15.691 16.198 35.921
H 15.391 17.916 35.904
H 15.186 16.946 34.504
C 18.301 16.896 35.992
H 18.116 17.505 36.851
H 18.118 15.922 36.266
H 19.299 16.996 35.707
