137

Mg 21.415 18.275 25.43 
C 23.915 17.907 23.143
C 23.089 21.018 26.726
H 23.688 21.843 27.204
C 18.833 18.88  27.593
H 18.037 18.867 28.322
C 19.569 15.722 23.952
H 19.061 14.914 23.563
N 23.202 19.358 24.911
C 24.073 19.066 23.92 
C 25.264 19.999 23.794
H 26.159 19.38  24.041
C 24.948 20.956 24.985
H 24.795 21.973 24.619
C 23.688 20.403 25.665
C 26.041 20.893 26.086
H 25.95  19.981 26.594
H 26.981 21.138 25.681
H 25.882 21.53  26.905
C 25.293 20.734 22.405
H 24.315 21.157 22.291
H 25.399 19.894 21.652
C 26.388 21.756 22.163
H 27.051 21.742 23.043
H 26.963 21.595 21.306
C 26.18  23.252 21.953
O 26.978 24.022 21.409
O 25.002 23.69  22.446
N 21.018 19.707 26.966
C 21.878 20.706 27.32 
C 21.245 21.546 28.395
C 19.985 20.978 28.626
C 19.891 19.8   27.697
C 21.767 22.786 29.074
H 20.905 23.348 29.41 
H 22.387 22.559 29.918
H 22.239 23.423 28.361
C 18.952 21.226 29.667
H 17.999 21.008 29.34 
C 19.124 21.763 30.886
H 20.135 22.112 31.312
H 18.345 21.99  31.604
N 19.392 17.416 25.646
C 18.568 17.772 26.708
C 17.415 16.935 26.695
C 17.585 16.064 25.582
C 18.841 16.404 24.963
C 16.236 17.069 27.552
H 16.09  18.1   27.661
H 15.343 16.567 27.191
H 16.378 16.49  28.549
C 16.634 15.04  24.997
H 17.118 14.337 24.373
H 16.335 14.469 25.791
C 15.445 15.667 24.271
H 15.652 16.485 23.599
H 14.934 15.004 23.556
H 14.652 16.028 24.953
N 21.692 16.934 23.958
C 20.822 15.976 23.431
C 21.531 15.299 22.427
C 22.786 15.962 22.312
C 22.816 16.99  23.216
C 21.082 14.013 21.743
H 20.06  13.714 22.023
H 21.135 14.087 20.693
H 21.849 13.277 22.008
C 24.032 15.993 21.682
O 24.378 15.204 20.812
C 24.81  17.272 22.089
H 24.895 17.923 21.26 
C 26.096 16.802 22.605
O 26.182 15.924 23.44 
O 27.095 17.54  22.105
C 28.421 17.213 22.462
H 28.455 17.152 23.532
H 28.523 16.194 22.079
H 29.186 17.805 22.052
C 24.722 25.118 22.226
H 24.792 25.313 21.151
H 25.515 25.826 22.583
C 23.398 25.559 22.783
H 22.897 26.401 22.332
C 22.745 25.258 23.913
C 23.241 24.189 24.874
H 24.224 24.549 25.152
H 22.515 24.122 25.698
H 23.277 23.249 24.401
C 21.355 25.831 24.021
H 20.787 24.935 24.439
H 20.905 26.097 23.046
C 21.255 26.963 25.035
H 22.073 26.955 25.755
H 20.234 26.758 25.539
C 21.252 28.366 24.321
H 20.232 28.688 24.411
H 21.395 28.295 23.271
C 22.103 29.586 24.852
H 23.102 29.182 24.869
C 21.843 29.977 26.329
H 20.758 30.099 26.378
H 22.174 29.208 27.038
H 22.351 30.987 26.6  
C 21.915 30.846 23.892
H 22.287 31.722 24.482
H 20.857 30.986 23.793
C 22.619 30.768 22.492
H 21.824 30.63  21.734
H 23.421 29.985 22.44 
C 23.476 32.068 22.166
H 24.48  31.685 21.827
H 23.607 32.751 23.025
C 22.994 32.946 20.954
H 22.793 32.265 20.218
C 24.152 33.968 20.693
H 24.052 34.5   19.784
H 24.272 34.708 21.493
H 25.085 33.373 20.621
C 21.537 33.681 21.131
H 21.521 34.134 22.122
H 20.806 32.822 21.122
C 21.    34.526 19.945
H 20.048 33.993 19.728
H 21.588 34.414 19.048
C 20.78  36.029 20.259
H 21.182 36.703 19.513
H 21.311 36.202 21.206
C 19.347 36.47  20.5  
H 18.69  36.24  19.653
C 19.241 38.01  20.566
H 19.44  38.467 19.659
H 18.317 38.393 20.864
H 19.906 38.4   21.3  
C 18.665 35.756 21.643
H 18.615 34.722 21.453
H 19.169 35.976 22.577
H 17.699 36.097 21.775
