137

Mg 30.202 30.273 39.104
C 26.978 30.299 40.315
C 29.009 29.514 36.029
H 28.574 29.162 35.048
C 33.224 31.025 37.79 
H 34.107 31.457 37.325
C 31.41  31.106 42.267
H 31.773 31.336 43.251
N 28.151 29.931 38.268
C 27.004 29.987 38.945
C 25.76  29.601 37.981
H 25.368 28.68  38.431
C 26.523 29.304 36.614
H 26.137 29.95  35.835
C 27.997 29.589 37.012
C 26.335 27.758 36.18 
H 25.392 27.304 36.591
H 26.385 27.805 35.061
H 27.25  27.241 36.573
C 24.721 30.798 37.763
H 25.191 31.611 37.251
H 24.363 31.27  38.703
C 23.586 30.298 36.812
H 23.411 29.247 37.152
H 22.656 30.712 37.208
C 23.496 30.369 35.303
O 23.695 31.389 34.655
O 23.311 29.163 34.732
N 30.951 30.169 37.246
C 30.356 29.825 36.157
C 31.241 29.851 35.026
C 32.46  30.403 35.504
C 32.223 30.613 36.92 
C 30.803 29.652 33.529
H 30.555 28.55  33.505
H 29.942 30.297 33.414
H 31.526 29.96  32.785
C 33.754 30.792 34.78 
H 34.434 31.608 35.117
C 34.252 30.023 33.737
H 33.761 29.133 33.311
H 35.209 30.328 33.317
N 32.02  30.907 39.848
C 33.189 31.1   39.151
C 34.276 31.526 40.037
C 33.728 31.584 41.33 
C 32.348 31.158 41.188
C 35.476 32.068 39.484
H 35.988 32.678 40.214
H 35.98  31.152 39.307
H 35.373 32.748 38.593
C 34.353 32.09  42.645
H 34.208 31.245 43.364
H 35.415 32.059 42.465
C 33.91  33.412 43.188
H 32.91  33.659 42.848
H 34.016 33.466 44.275
H 34.629 34.156 42.9  
N 29.441 30.769 40.945
C 29.989 30.912 42.173
C 28.956 30.944 43.223
C 27.755 30.657 42.547
C 28.119 30.582 41.176
C 29.112 31.089 44.698
H 29.663 30.233 45.164
H 29.647 31.982 44.958
H 28.146 30.961 45.141
C 26.299 30.456 42.63 
O 25.609 30.432 43.629
C 25.748 30.262 41.201
H 25.039 31.065 41.029
C 24.989 28.962 41.192
O 25.433 27.847 41.255
O 23.737 29.257 40.682
C 22.819 28.128 40.569
H 23.098 27.502 39.75 
H 22.854 27.707 41.571
H 21.826 28.539 40.408
C 23.402 29.082 33.288
H 24.272 29.671 32.96 
H 22.571 29.609 32.827
C 23.633 27.689 32.833
H 24.684 27.283 33.058
C 22.762 26.844 32.234
C 21.301 27.246 31.897
H 21.265 27.193 30.766
H 20.534 26.519 32.242
H 21.076 28.262 32.173
C 23.189 25.403 31.968
H 24.251 25.384 31.941
H 22.918 25.213 30.949
C 22.61  24.323 32.931
H 22.193 24.788 33.825
H 23.461 23.753 33.376
C 21.707 23.269 32.282
H 22.357 22.465 31.984
H 21.279 23.644 31.394
C 20.746 22.501 33.215
H 21.349 22.212 34.052
C 20.193 21.227 32.483
H 19.565 20.733 33.139
H 19.473 21.395 31.614
H 20.989 20.511 32.174
C 19.602 23.551 33.568
H 20.072 24.45  33.93 
H 19.005 23.066 34.347
C 18.76  24.015 32.419
H 19.064 23.483 31.54 
H 18.899 25.039 32.247
C 17.301 23.708 32.594
H 17.101 22.774 33.208
H 16.82  23.533 31.603
C 16.445 24.916 33.118
H 16.811 25.885 32.724
C 16.717 25.211 34.637
H 16.368 24.385 35.241
H 17.797 25.405 34.736
H 16.199 26.038 35.015
C 14.901 24.637 32.792
H 14.527 23.868 33.451
H 14.897 24.354 31.759
C 14.029 25.829 33.061
H 14.624 26.55  33.636
H 13.219 25.436 33.629
C 13.359 26.353 31.779
H 12.574 25.708 31.473
H 14.048 26.354 30.952
C 12.842 27.862 31.882
H 12.241 27.821 32.822
C 11.77  28.212 30.829
H 11.034 27.379 30.778
H 11.401 29.276 30.859
H 12.307 28.157 29.881
C 13.934 28.903 31.888
H 14.634 28.756 32.734
H 14.624 28.747 31.014
H 13.54  29.922 31.799
