137

Mg 19.456 23.647 29.459
C 22.527 24.233 30.901
C 18.313 26.67  30.473
H 18.113 27.728 30.841
C 16.358 22.841 28.308
H 15.344 22.594 28.019
C 20.692 20.536 28.353
H 21.096 19.598 27.98 
N 20.308 25.147 30.669
C 21.578 25.265 31.148
C 21.829 26.645 31.799
H 22.073 26.494 32.87 
C 20.456 27.341 31.655
H 20.519 28.189 31.037
C 19.649 26.334 30.853
C 19.812 27.633 33.097
H 18.805 28.049 33.071
H 19.808 26.777 33.841
H 20.423 28.403 33.574
C 22.94 27.53 31.15
H 22.559 27.781 30.17 
H 23.869 27.    31.021
C 23.229 28.776 31.967
H 22.578 28.798 32.802
H 24.207 28.864 32.308
C 22.858 30.11  31.257
O 22.409 30.306 30.173
O 23.439 31.137 31.957
N 17.572 24.602 29.425
C 17.332 25.863 29.853
C 15.932 26.135 29.734
C 15.314 25.053 29.085
C 16.412 24.078 28.916
C 15.36  27.441 30.306
H 14.403 27.221 30.824
H 16.038 27.946 31.039
H 15.137 28.165 29.548
C 13.88  24.756 28.709
H 13.166 24.846 29.541
C 13.438 24.405 27.466
H 14.119 24.364 26.574
H 12.431 24.13  27.345
N 18.692 22.012 28.613
C 17.382 21.916 28.104
C 17.182 20.654 27.366
C 18.513 20.133 27.253
C 19.361 20.935 28.068
C 15.894 20.183 26.632
H 15.136 20.547 27.303
H 15.894 20.565 25.619
H 15.82  19.101 26.712
C 18.951 18.976 26.427
H 19.578 18.289 27.039
H 18.105 18.414 26.021
C 19.902 19.368 25.272
H 19.395 20.141 24.697
H 20.873 19.571 25.634
H 20.119 18.486 24.652
N 21.154 22.615 29.583
C 21.492 21.346 29.146
C 22.889 21.048 29.525
C 23.333 22.124 30.26 
C 22.245 23.025 30.212
C 23.635 19.695 29.231
H 24.69  19.757 29.64 
H 23.059 18.872 29.756
H 23.673 19.408 28.208
C 24.439 22.645 30.984
O 25.572 22.24  31.102
C 23.903 24.079 31.401
H 24.427 24.841 30.844
C 23.903 23.995 32.922
O 22.979 23.788 33.685
O 25.107 24.214 33.445
C 25.264 24.456 34.94 
H 24.882 23.619 35.513
H 26.267 24.839 35.209
H 24.584 25.277 35.248
C 23.391 32.479 31.38 
H 23.409 32.389 30.271
H 24.098 33.154 31.675
C 22.07  33.134 31.659
H 21.299 32.686 31.142
C 21.802 34.27  32.374
C 22.742 35.052 33.274
H 22.595 36.087 33.072
H 22.634 34.935 34.308
H 23.788 34.79  33.054
C 20.385 34.75  32.385
H 19.816 34.471 31.451
H 20.31  35.835 32.448
C 19.63  34.104 33.533
H 20.2   34.144 34.435
H 19.531 33.073 33.188
C 18.202 34.773 33.707
H 17.455 34.062 33.34 
H 18.14  35.662 33.111
C 17.682 35.184 35.159
H 18.504 35.587 35.687
C 17.09  33.875 35.803
H 16.381 33.402 35.07 
H 17.824 33.209 36.101
H 16.502 34.128 36.683
C 16.652 36.388 35.131
H 16.288 36.281 36.17 
H 15.999 36.144 34.333
C 17.128 37.847 34.936
H 18.155 37.949 35.203
H 16.64  38.589 35.612
C 16.992 38.435 33.564
H 16.327 39.302 33.739
H 16.449 37.712 32.933
C 18.284 39.06  32.904
H 19.178 38.407 33.043
C 18.581 40.264 33.952
H 17.71  40.937 34.046
H 18.817 39.943 34.93 
H 19.348 40.998 33.585
C 18.206 39.469 31.409
H 17.519 40.329 31.503
H 17.832 38.621 30.81 
C 19.545 39.986 30.807
H 20.175 40.054 31.648
H 19.412 41.016 30.422
C 20.104 38.974 29.827
H 20.493 39.454 28.872
H 19.368 38.296 29.433
C 21.294 38.109 30.354
H 20.909 37.558 31.193
C 22.621 38.888 30.557
H 23.4   38.17  30.818
H 22.845 39.41  29.625
H 22.578 39.63  31.266
C 21.651 37.009 29.403
H 22.206 37.455 28.563
H 22.155 36.177 29.847
H 20.763 36.637 28.962
