137

Mg 35.559 28.714 33.879
C 32.226 28.415 34.445
C 35.066 26.829 30.94 
H 35.061 26.125 30.107
C 38.838 28.881 33.321
H 39.984 28.962 33.181
C 35.805 30.483 36.851
H 35.913 30.889 37.835
N 33.863 27.79  32.809
C 32.56  27.867 33.22 
C 31.515 27.149 32.292
H 30.887 26.421 32.818
C 32.548 26.437 31.399
H 32.517 26.65  30.362
C 33.916 27.083 31.675
C 32.501 24.911 31.513
H 33.182 24.362 30.812
H 32.917 24.557 32.354
H 31.525 24.444 31.459
C 30.577 28.078 31.464
H 31.183 28.848 30.968
H 29.856 28.547 32.116
C 29.665 27.342 30.385
H 29.25  28.093 29.764
H 30.29  26.721 29.764
C 28.542 26.406 30.901
O 28.602 25.526 31.749
O 27.337 26.692 30.284
N 36.753 28.018 32.381
C 36.372 27.287 31.243
C 37.554 27.017 30.494
C 38.636 27.551 31.228
C 38.08  28.223 32.336
C 37.653 26.2   29.222
H 37.189 25.215 29.268
H 37.131 26.865 28.532
H 38.699 26.121 28.961
C 40.062 27.597 30.797
H 40.136 27.9   29.758
C 41.057 27.287 31.632
H 40.878 27.037 32.692
H 42.08  27.471 31.296
N 37.097 29.501 34.895
C 38.381 29.563 34.444
C 39.12  30.338 35.464
C 38.238 30.759 36.493
C 36.967 30.209 36.162
C 40.583 30.676 35.371
H 40.706 31.592 34.734
H 41.018 30.795 36.318
H 41.107 29.8   35.018
C 38.501 31.847 37.541
H 38.271 31.533 38.532
H 39.566 31.982 37.623
C 37.788 33.155 37.335
H 38.205 34.028 37.872
H 37.809 33.363 36.308
H 36.738 32.995 37.485
N 34.347 29.252 35.321
C 34.556 29.998 36.565
C 33.328 30.152 37.334
C 32.427 29.514 36.519
C 33.054 29.002 35.346
C 33.207 30.87  38.637
H 32.145 31.244 38.731
H 33.289 30.112 39.422
H 33.881 31.75  38.646
C 31.027 29.206 36.443
O 30.102 29.466 37.205
C 30.855 28.429 35.132
H 30.092 28.867 34.414
C 30.381 27.083 35.429
O 30.953 26.265 36.129
O 29.144 26.866 34.795
C 28.518 25.521 34.883
H 28.304 25.314 35.98 
H 27.653 25.452 34.243
H 29.276 24.854 34.54 
C 26.144 26.045 30.764
H 26.22  25.927 31.88 
H 26.272 25.014 30.419
C 24.969 26.774 30.253
H 25.099 27.137 29.281
C 23.774 26.922 30.881
C 23.433 26.466 32.33 
H 24.111 26.944 33.071
H 22.395 26.851 32.495
H 23.447 25.371 32.295
C 22.584 27.619 30.165
H 22.89  28.684 30.287
H 21.612 27.598 30.655
C 22.301 27.365 28.725
H 21.459 26.736 28.764
H 23.166 26.81  28.323
C 22.156 28.711 27.935
H 22.905 28.767 27.219
H 22.251 29.517 28.629
C 20.784 28.856 27.275
H 20.052 28.728 27.993
C 20.585 27.685 26.244
H 19.663 27.886 25.733
H 21.383 27.715 25.485
H 20.519 26.75  26.752
C 20.532 30.169 26.506
H 19.626 30.24  25.977
H 21.303 30.085 25.762
C 20.613 31.511 27.336
H 20.27  31.387 28.324
H 19.925 32.195 26.815
C 21.988 32.123 27.339
H 22.738 31.387 27.037
H 22.326 32.415 28.379
C 22.35  33.449 26.505
H 21.41  33.945 26.255
C 22.948 32.937 25.133
H 22.283 32.269 24.506
H 23.146 33.872 24.579
H 23.904 32.36  25.26 
C 23.337 34.473 27.156
H 23.53  35.23  26.376
H 24.25  33.946 27.527
C 22.67  35.18  28.402
H 22.716 34.494 29.265
H 21.62  35.373 28.102
C 23.405 36.511 28.772
H 22.844 37.364 28.56 
H 24.245 36.63  28.217
C 23.98  36.664 30.259
H 24.465 35.724 30.608
C 22.846 37.004 31.202
H 22.167 37.765 30.841
H 22.217 36.113 31.217
H 23.172 37.282 32.174
C 25.096 37.68  30.433
H 25.838 37.331 31.152
H 25.646 37.724 29.475
H 24.804 38.714 30.661
