137

Mg 19.63  26.605 31.638
C 20.533 23.557 33.167
C 16.764 26.606 33.572
H 15.823 26.729 34.076
C 18.728 29.514 30.19 
H 18.407 30.47  29.776
C 22.252 26.187 29.498
H 23.2   26.181 28.934
N 18.82  25.303 33.287
C 19.361 24.088 33.661
C 18.592 23.52  34.903
H 18.339 22.484 34.661
C 17.321 24.469 34.915
H 17.147 24.887 35.928
C 17.608 25.52  33.868
C 15.974 23.794 34.497
H 15.983 23.258 33.526
H 15.817 22.946 35.186
H 15.126 24.458 34.489
C 19.379 23.65  36.252
H 19.557 24.716 36.356
H 20.377 23.282 36.096
C 18.92  23.033 37.554
H 17.967 22.521 37.478
H 19.565 22.289 37.943
C 18.7   23.974 38.751
O 19.349 24.075 39.789
O 17.594 24.763 38.532
N 18.043 27.975 31.943
C 17.004 27.774 32.822
C 16.204 28.996 32.807
C 16.796 29.896 31.805
C 17.893 29.143 31.289
C 15.056 29.265 33.741
H 15.501 29.598 34.731
H 14.483 30.108 33.391
H 14.409 28.378 33.929
C 16.518 31.344 31.544
H 17.44  31.998 31.366
C 15.257 31.842 31.424
H 14.386 31.142 31.506
H 15.121 32.863 31.16 
N 20.372 27.698 30.087
C 19.904 28.896 29.72 
C 20.822 29.402 28.739
C 21.948 28.59  28.67 
C 21.533 27.395 29.357
C 20.715 30.693 28.128
H 21.189 31.426 28.791
H 21.133 30.691 27.102
H 19.609 30.823 28.117
C 23.349 28.843 28.063
H 23.565 27.99  27.391
H 23.424 29.747 27.504
C 24.349 29.02  29.237
H 23.73  29.861 29.767
H 24.464 28.078 29.797
H 25.246 29.448 28.763
N 20.99  25.194 31.311
C 22.051 25.178 30.388
C 22.973 23.973 30.621
C 22.43  23.314 31.727
C 21.305 24.111 32.141
C 24.2   23.552 29.935
H 24.049 22.511 29.621
H 24.338 24.184 29.079
H 25.098 23.735 30.558
C 22.573 22.191 32.628
O 23.412 21.271 32.659
C 21.338 22.3   33.645
H 21.79  22.466 34.648
C 20.602 21.023 33.552
O 20.012 20.517 32.589
O 20.637 20.412 34.76 
C 20.042 19.029 34.629
H 20.558 18.469 33.89 
H 20.186 18.531 35.579
H 19.027 19.143 34.456
C 17.424 25.928 39.439
H 18.284 26.607 39.35 
H 17.378 25.771 40.486
C 16.177 26.652 39.016
H 15.272 26.424 39.642
C 15.999 27.579 38.076
C 17.046 28.002 37.045
H 16.829 29.057 36.846
H 18.079 27.877 37.316
H 16.87  27.547 36.042
C 14.623 28.251 37.845
H 13.835 27.834 38.52 
H 14.261 28.12  36.773
C 14.595 29.698 38.288
H 15.556 29.958 38.495
H 13.951 29.902 39.136
C 14.068 30.737 37.24 
H 13.118 31.138 37.466
H 14.009 30.056 36.391
C 15.115 31.823 36.884
H 16.003 31.353 36.512
C 15.464 32.866 38.07 
H 16.113 33.702 37.763
H 14.605 33.091 38.705
H 16.074 32.229 38.708
C 14.318 32.672 35.806
H 13.421 33.032 36.342
H 13.98  31.94  35.058
C 15.044 33.822 35.164
H 15.763 33.251 34.538
H 15.499 34.505 35.805
C 14.134 34.513 34.106
H 13.162 34.258 34.437
H 14.24  34.036 33.122
C 14.372 35.981 33.915
H 15.424 36.185 33.798
C 13.795 36.777 35.089
H 14.27  37.737 34.906
H 12.749 36.909 35.016
H 14.276 36.405 36.028
C 13.706 36.561 32.622
H 13.494 37.58  32.688
H 12.702 36.109 32.634
C 14.338 36.215 31.281
H 13.441 35.956 30.68 
H 15.086 35.406 31.333
C 15.129 37.374 30.705
H 16.156 37.016 30.699
H 15.21  38.257 31.349
C 14.747 37.862 29.265
H 15.014 36.954 28.672
C 15.669 38.989 28.883
H 15.344 39.497 27.971
H 15.736 39.716 29.726
H 16.665 38.53  28.699
C 13.221 38.183 29.134
H 13.04  38.206 28.061
H 12.383 37.757 29.755
H 13.192 39.207 29.543
