137

Mg 21.382 18.883 25.624
C 23.838 17.873 23.433
C 23.356 21.452 26.674
H 23.993 22.195 27.186
C 18.854 19.938 27.63 
H 18.048 20.154 28.419
C 19.334 16.445 24.318
H 18.677 15.729 23.852
N 23.32  19.649 25.036
C 24.163 19.046 24.214
C 25.417 19.975 24.012
H 26.298 19.332 24.201
C 25.333 20.976 25.206
H 25.387 21.948 24.656
C 23.894 20.723 25.658
C 26.48  20.855 26.261
H 26.798 19.841 26.4  
H 27.332 21.368 25.838
H 26.197 21.394 27.156
C 25.356 20.581 22.596
H 24.504 21.334 22.347
H 25.234 19.836 21.801
C 26.663 21.202 22.089
H 27.398 20.437 22.264
H 26.46  21.441 21.047
C 27.182 22.485 22.703
O 28.292 22.61  23.133
O 26.289 23.456 22.777
N 21.135 20.335 27.034
C 22.093 21.361 27.29 
C 21.568 22.243 28.29 
C 20.241 21.802 28.635
C 20.023 20.617 27.774
C 22.261 23.484 28.756
H 21.607 24.164 29.297
H 23.056 23.048 29.369
H 22.779 24.151 28.043
C 19.182 22.288 29.515
H 18.164 22.125 29.263
C 19.386 22.988 30.675
H 20.426 23.138 30.998
H 18.656 23.318 31.425
N 19.356 18.294 25.854
C 18.526 18.827 26.808
C 17.304 18.139 26.724
C 17.444 17.116 25.825
C 18.74  17.244 25.242
C 16.154 18.609 27.62 
H 16.481 18.908 28.651
H 15.744 19.424 27.127
H 15.384 17.905 27.69 
C 16.487 15.915 25.629
H 16.95  15.001 25.96 
H 15.646 16.048 26.351
C 15.905 15.866 24.259
H 16.602 15.768 23.408
H 15.273 14.993 24.254
H 15.427 16.821 24.013
N 21.475 17.503 24.076
C 20.596 16.569 23.723
C 21.16  15.712 22.689
C 22.482 16.174 22.579
C 22.618 17.26  23.438
C 20.471 14.57  21.988
H 20.717 14.39  20.96 
H 20.653 13.71  22.577
H 19.406 14.651 21.915
C 23.727 15.895 21.88 
O 23.977 15.02  21.045
C 24.689 17.07  22.398
H 24.977 17.666 21.617
C 25.893 16.454 23.047
O 25.915 15.471 23.753
O 26.977 17.252 22.774
C 28.287 16.697 23.221
H 28.447 16.869 24.328
H 28.418 15.679 22.86 
H 29.182 17.137 22.777
C 26.717 24.671 23.577
H 27.516 25.283 23.106
H 27.053 24.266 24.591
C 25.544 25.452 23.58 
H 25.481 26.091 22.705
C 24.556 25.587 24.534
C 24.341 24.687 25.68 
H 24.54  25.069 26.7  
H 23.331 24.42  25.686
H 24.865 23.783 25.533
C 23.39  26.549 24.285
H 22.488 25.921 24.332
H 23.477 27.085 23.335
C 23.152 27.573 25.371
H 24.033 27.931 25.933
H 22.517 27.213 26.253
C 22.365 28.844 24.991
H 21.331 28.776 25.374
H 22.282 28.76  23.929
C 22.848 30.21  25.423
H 23.722 30.366 24.836
C 23.074 30.25  27.042
H 23.768 30.987 27.305
H 22.167 30.63  27.495
H 23.344 29.328 27.568
C 21.751 31.286 25.03 
H 21.882 32.211 25.6  
H 20.808 30.944 25.372
C 21.528 31.421 23.464
H 20.481 31.054 23.226
H 22.289 30.819 22.959
C 21.544 32.893 23.056
H 22.455 33.194 22.608
H 21.463 33.555 23.985
C 20.544 33.265 21.902
H 20.715 32.357 21.217
C 21.1   34.514 21.128
H 20.579 34.603 20.216
H 20.956 35.332 21.702
H 22.175 34.463 20.885
C 19.033 33.419 22.315
H 19.014 34.179 23.111
H 18.772 32.495 22.878
C 18.016 33.573 21.205
H 17.296 32.793 21.298
H 18.567 33.304 20.359
C 17.481 35.008 21.11 
H 17.438 35.239 20.017
H 18.083 35.657 21.746
C 16.039 35.224 21.727
H 15.318 34.516 21.228
C 15.591 36.749 21.506
H 15.853 37.157 20.508
H 14.528 36.982 21.708
H 16.261 37.235 22.203
C 15.914 34.73  23.241
H 14.886 34.863 23.558
H 16.16  33.684 23.38 
H 16.59  35.334 23.815
