137

Mg 30.168 29.402 42.177
C 26.812 29.952 42.738
C 29.408 28.923 38.775
H 29.077 28.544 37.811
C 33.241 28.085 41.627
H 34.227 27.715 41.501
C 30.784 29.752 45.558
H 30.993 29.967 46.582
N 28.366 29.463 40.9  
C 27.092 29.862 41.359
C 26.046 29.915 40.184
H 25.272 29.107 40.476
C 26.914 29.373 39.015
H 26.858 30.183 38.216
C 28.371 29.293 39.592
C 26.337 28.13  38.356
H 27.057 27.691 37.735
H 26.045 27.294 38.948
H 25.462 28.429 37.703
C 25.323 31.266 39.945
H 25.963 32.    39.486
H 25.056 31.692 40.876
C 24.067 31.126 39.16 
H 23.915 30.014 39.185
H 23.262 31.581 39.693
C 24.002 31.799 37.801
O 23.912 32.99  37.557
O 24.257 30.758 36.912
N 31.169 28.684 40.501
C 30.747 28.628 39.176
C 31.859 28.14  38.371
C 32.951 27.848 39.216
C 32.451 28.236 40.515
C 31.69  27.962 36.921
H 30.729 27.632 36.664
H 31.855 28.96  36.529
H 32.384 27.202 36.498
C 34.339 27.223 38.983
H 34.765 26.644 39.778
C 34.93  27.342 37.756
H 34.536 27.91  36.899
H 35.84  26.8   37.617
N 31.733 29.033 43.356
C 32.939 28.478 42.933
C 33.808 28.469 44.048
C 33.155 28.951 45.203
C 31.848 29.257 44.775
C 35.179 27.974 43.94 
H 35.226 26.891 43.601
H 35.698 28.555 43.155
H 35.649 27.926 44.945
C 33.582 28.957 46.663
H 32.724 29.04  47.287
H 34.051 27.958 46.885
C 34.592 30.017 46.925
H 35.509 29.758 46.438
H 34.261 31.022 46.608
H 34.79  30.064 48.015
N 29.099 29.726 43.811
C 29.483 29.872 45.114
C 28.339 30.162 45.925
C 27.29  30.122 45.033
C 27.775 29.95  43.769
C 28.502 30.338 47.401
H 27.565 30.079 47.862
H 29.289 29.8   47.939
H 28.823 31.377 47.721
C 25.859 30.212 44.966
O 24.979 30.38  45.829
C 25.494 30.263 43.379
H 25.046 31.174 43.124
C 24.522 29.088 43.308
O 24.755 27.947 43.49 
O 23.269 29.502 43.013
C 22.189 28.542 43.339
H 22.389 27.843 42.559
H 22.216 28.137 44.329
H 21.284 28.851 42.931
C 24.294 31.194 35.57 
H 25.109 31.91  35.308
H 23.304 31.705 35.305
C 24.342 29.858 34.895
H 25.305 29.407 35.042
C 23.544 29.137 34.115
C 22.275 29.703 33.592
H 22.391 30.658 33.197
H 21.845 29.004 32.873
H 21.599 29.736 34.367
C 23.937 27.744 33.744
H 25.007 27.704 33.595
H 23.513 27.398 32.705
C 23.592 26.602 34.778
H 23.022 27.089 35.544
H 24.455 26.247 35.306
C 22.861 25.339 34.109
H 23.541 24.485 34.357
H 22.75  25.443 33.028
C 21.461 24.848 34.627
H 21.343 24.889 35.67 
C 21.21  23.371 34.282
H 20.158 23.223 34.417
H 21.53  23.237 33.22 
H 21.857 22.682 34.841
C 20.302 25.715 34.125
H 20.343 26.674 34.661
H 19.274 25.429 34.287
C 20.141 26.048 32.598
H 19.891 25.151 31.947
H 20.986 26.591 32.146
C 18.9   26.939 32.329
H 19.085 28.018 32.549
H 18.084 26.753 33.099
C 18.141 26.751 30.987
H 18.262 25.741 30.691
C 18.82  27.593 29.839
H 18.254 27.624 28.891
H 18.858 28.591 30.142
H 19.793 27.223 29.665
C 16.562 27.013 31.099
H 16.447 28.026 31.166
H 16.251 26.702 32.102
C 15.661 26.308 30.014
H 15.506 25.285 30.427
H 16.113 26.127 29.086
C 14.244 27.044 29.988
H 14.167 27.112 28.847
H 14.273 27.998 30.509
C 12.972 26.217 30.412
H 12.906 25.215 29.998
C 11.717 26.906 29.792
H 11.764 26.726 28.727
H 10.743 26.566 30.067
H 11.792 28.013 29.991
C 12.899 26.267 31.971
H 11.897 26.01  32.361
H 13.684 25.768 32.499
H 12.843 27.312 32.289
