137

Mg 21.891 19.294 32.548
C 24.916 19.023 30.999
C 22.889 22.5   33.687
H 23.15  23.411 34.058
C 18.727 20.021 33.549
H 17.73  20.173 33.925
C 21.002 16.15  31.715
H 20.636 15.143 31.422
N 23.706 20.632 32.366
C 24.767 20.343 31.543
C 25.878 21.443 31.569
H 26.805 20.988 31.908
C 25.298 22.312 32.717
H 25.189 23.346 32.392
C 23.843 21.825 32.935
C 26.162 22.263 33.99 
H 27.167 22.563 33.796
H 25.661 22.843 34.815
H 26.128 21.156 34.253
C 26.027 22.151 30.227
H 25.043 22.623 30.076
H 26.205 21.467 29.426
C 27.123 23.181 30.234
H 27.721 23.161 31.086
H 27.825 22.905 29.413
C 26.799 24.677 29.938
O 27.545 25.556 29.537
O 25.603 24.998 30.489
N 20.909 21.022 33.305
C 21.505 22.19  33.771
C 20.514 23.112 34.258
C 19.286 22.404 34.206
C 19.609 21.063 33.659
C 20.877 24.578 34.615
H 20.023 25.247 34.906
H 21.718 24.723 35.337
H 21.358 24.995 33.807
C 17.911 22.762 34.672
H 17.277 22.018 35.164
C 17.433 24.024 34.486
H 17.968 24.838 33.913
H 16.404 24.34  34.802
N 20.068 18.203 32.543
C 18.905 18.722 32.976
C 17.881 17.741 32.759
C 18.537 16.517 32.301
C 19.933 16.892 32.173
C 16.385 17.965 33.019
H 15.695 17.304 32.521
H 16.177 17.923 34.104
H 16.039 18.938 32.64 
C 17.924 15.172 32.123
H 18.641 14.44  32.539
H 16.934 15.107 32.642
C 17.628 14.825 30.665
H 18.57  14.671 30.163
H 17.017 13.918 30.522
H 17.015 15.634 30.183
N 22.695 17.879 31.504
C 22.274 16.589 31.328
C 23.396 15.855 30.724
C 24.369 16.78  30.63 
C 23.909 18.023 31.064
C 23.453 14.374 30.401
H 23.428 13.879 31.378
H 22.675 14.206 29.724
H 24.325 14.073 29.954
C 25.765 16.897 30.277
O 26.523 16.03  29.833
C 26.203 18.342 30.467
H 26.509 18.785 29.529
C 27.261 18.324 31.508
O 27.118 17.91  32.651
O 28.435 18.82  30.974
C 29.545 18.962 31.877
H 29.483 18.177 32.632
H 30.488 18.889 31.255
H 29.521 19.932 32.304
C 25.111 26.34  30.259
H 25.124 26.643 29.161
H 25.601 26.993 30.903
C 23.7   26.306 30.71 
H 23.629 26.028 31.799
C 22.575 26.277 30.012
C 22.455 26.413 28.563
H 21.723 25.612 28.268
H 21.987 27.371 28.259
H 23.372 26.285 27.904
C 21.252 26.102 30.727
H 21.478 25.472 31.621
H 20.658 25.413 30.113
C 20.36  27.295 31.115
H 20.911 28.198 31.232
H 19.945 27.059 32.079
C 19.246 27.646 30.104
H 19.07  26.805 29.476
H 19.55  28.49  29.525
C 17.862 28.098 30.754
H 18.046 28.761 31.573
C 17.047 26.852 31.248
H 16.636 26.284 30.418
H 17.627 26.284 31.983
H 16.197 27.242 31.845
C 17.021 28.974 29.751
H 16.17  29.306 30.322
H 16.753 28.247 28.975
C 17.815 30.146 29.062
H 18.202 29.949 28.025
H 18.721 30.302 29.659
C 17.074 31.566 29.093
H 15.997 31.523 29.471
H 16.955 31.819 28.054
C 17.866 32.691 29.862
H 18.845 32.744 29.291
C 18.073 32.418 31.391
H 18.244 33.36  31.881
H 17.184 31.872 31.7  
H 18.958 31.75  31.441
C 17.088 34.009 29.627
H 16.205 34.044 30.207
H 16.79  34.106 28.611
C 17.923 35.319 29.79 
H 17.984 35.805 28.794
H 18.956 35.097 30.002
C 17.302 36.368 30.765
H 17.988 36.739 31.551
H 16.495 35.99  31.401
C 16.852 37.717 30.063
H 17.782 38.179 29.698
C 16.163 38.649 31.098
H 16.102 39.639 30.784
H 15.213 38.339 31.376
H 16.808 38.721 32.032
C 15.936 37.531 28.835
H 15.014 37.053 29.115
H 15.651 38.491 28.476
H 16.323 36.919 28.018
