137

Mg 29.352 30.202 34.093
C 29.105 29.121 37.29 
C 26.025 29.601 33.602
H 24.949 29.491 33.461
C 29.682 31.053 30.828
H 29.845 31.223 29.78 
C 32.683 31.017 34.587
H 33.691 31.267 34.552
N 27.787 29.433 35.287
C 27.896 29.146 36.605
C 26.589 28.773 37.202
H 26.84  27.825 37.713
C 25.588 28.777 35.928
H 24.808 29.49  36.103
C 26.503 29.239 34.842
C 24.837 27.428 35.647
H 24.288 27.565 34.698
H 25.526 26.544 35.698
H 24.036 27.278 36.38 
C 26.206 29.883 38.238
H 25.991 30.782 37.612
H 26.991 30.244 38.876
C 25.077 29.436 39.144
H 24.956 28.364 38.982
H 25.319 29.667 40.198
C 23.717 30.075 38.88 
O 23.341 31.177 39.341
O 23.074 29.31  37.937
N 28.022 30.363 32.469
C 26.693 30.077 32.466
C 26.138 30.233 31.135
C 27.241 30.62  30.345
C 28.366 30.702 31.288
C 24.669 30.046 30.798
H 24.394 30.224 29.745
H 24.383 29.019 31.123
H 24.125 30.821 31.344
C 27.331 31.104 28.896
H 28.049 31.867 28.623
C 26.541 30.708 27.869
H 25.687 29.925 27.938
H 26.569 31.315 26.942
N 30.916 30.875 32.954
C 30.824 31.221 31.627
C 32.062 31.763 31.098
C 32.876 31.884 32.263
C 32.142 31.27  33.318
C 32.392 32.115 29.627
H 33.422 31.954 29.486
H 31.848 31.442 28.995
H 32.057 33.155 29.397
C 34.235 32.519 32.443
H 35.024 31.901 32.772
H 34.629 32.934 31.501
C 34.115 33.653 33.451
H 35.103 34.06  33.781
H 33.59  34.387 32.864
H 33.473 33.484 34.33 
N 30.622 30.184 35.571
C 31.962 30.52  35.703
C 32.5   30.045 36.942
C 31.381 29.444 37.53 
C 30.353 29.558 36.672
C 33.911 30.193 37.399
H 34.078 30.311 38.524
H 34.391 29.247 37.06 
H 34.397 31.    36.982
C 30.999 28.676 38.669
O 31.699 28.305 39.599
C 29.436 28.45  38.627
H 28.964 28.896 39.528
C 29.38  27.004 38.793
O 29.354 26.188 37.864
O 29.349 26.805 40.138
C 29.364 25.321 40.392
H 29.712 24.675 39.558
H 29.906 25.149 41.298
H 28.3   25.038 40.617
C 21.765 29.85  37.578
H 21.789 30.807 37.148
H 21.121 29.93  38.443
C 21.171 28.803 36.654
H 20.809 27.865 37.056
C 21.151 28.887 35.345
C 21.769 30.022 34.555
H 22.039 30.811 35.19 
H 22.667 29.553 34.141
H 21.096 30.354 33.732
C 20.804 27.672 34.522
H 20.626 26.794 35.115
H 21.571 27.383 33.819
C 19.449 27.833 33.764
H 19.11  28.887 33.906
H 18.684 27.114 34.11 
C 19.609 27.634 32.201
H 20.548 27.198 32.036
H 19.617 28.635 31.729
C 18.507 26.877 31.433
H 18.842 25.861 31.677
C 18.674 27.034 29.945
H 19.594 26.542 29.718
H 17.847 26.514 29.387
H 18.714 28.091 29.701
C 17.075 27.204 31.832
H 16.926 26.946 32.922
H 16.423 26.482 31.39 
C 16.45  28.614 31.803
H 17.218 29.268 31.395
H 16.262 28.99  32.811
C 15.114 28.649 30.957
H 14.369 28.773 31.764
H 14.847 27.761 30.437
C 15.035 29.842 29.949
H 15.865 29.861 29.295
C 15.023 31.21  30.726
H 14.002 31.547 30.965
H 15.738 31.391 31.589
H 15.282 31.916 29.937
C 13.735 29.779 29.041
H 12.875 29.842 29.673
H 13.809 28.775 28.641
C 13.747 30.832 27.884
H 13.505 30.306 26.961
H 14.715 31.418 27.856
C 12.643 31.822 28.08 
H 12.614 31.968 29.213
H 11.646 31.345 27.803
C 12.854 33.242 27.574
H 13.842 33.582 27.893
C 11.788 34.216 28.142
H 12.051 34.267 29.163
H 12.03  35.15  27.749
H 10.724 34.018 28.04 
C 12.879 33.428 25.992
H 13.387 34.397 25.782
H 13.532 32.627 25.679
H 11.902 33.304 25.516
