137

Mg 29.535 30.047 32.681
C 27.355 29.598 35.244
C 26.88  30.433 30.464
H 26.    30.551 29.852
C 31.768 30.748 30.091
H 32.347 31.09  29.216
C 32.198 29.851 34.864
H 32.956 29.742 35.561
N 27.289 30.128 32.874
C 26.656 29.782 34.046
C 25.167 29.855 33.888
H 24.843 28.965 34.26 
C 24.963 29.864 32.271
H 24.333 30.712 31.891
C 26.457 30.149 31.797
C 24.419 28.509 31.777
H 24.542 28.469 30.673
H 25.041 27.665 32.113
H 23.358 28.496 32.097
C 24.576 31.091 34.517
H 24.635 31.961 33.851
H 25.138 31.556 35.372
C 23.174 30.942 34.959
H 23.028 29.951 35.349
H 23.037 31.705 35.737
C 22.017 31.339 33.997
O 21.811 32.471 33.585
O 21.429 30.227 33.463
N 29.337 30.716 30.633
C 28.155 30.648 29.85 
C 28.491 30.965 28.501
C 29.849 31.236 28.46 
C 30.405 30.89  29.769
C 27.453 31.212 27.384
H 27.684 32.082 26.764
H 27.353 30.301 26.784
H 26.494 31.502 27.835
C 30.567 31.743 27.281
H 30.134 31.554 26.27 
C 31.582 32.628 27.3  
H 32.022 33.02  28.251
H 31.989 33.013 26.326
N 31.65  30.241 32.519
C 32.332 30.427 31.342
C 33.773 30.566 31.655
C 33.923 30.403 33.078
C 32.536 30.135 33.56 
C 34.783 30.818 30.526
H 34.8   31.868 30.366
H 35.753 30.403 30.847
H 34.522 30.458 29.511
C 35.214 30.618 33.888
H 35.49  29.704 34.42 
H 36.07  30.924 33.213
C 35.087 31.658 34.911
H 35.937 31.691 35.522
H 35.133 32.6   34.394
H 34.187 31.561 35.437
N 29.76  29.738 34.52 
C 30.906 29.644 35.306
C 30.529 29.328 36.679
C 29.131 29.323 36.687
C 28.742 29.62  35.347
C 31.439 29.048 37.879
H 30.825 28.774 38.726
H 32.13  28.22  37.533
H 31.816 29.999 37.992
C 27.964 29.224 37.5  
O 27.831 29.177 38.689
C 26.725 29.273 36.577
H 26.057 30.066 36.974
C 26.242 27.954 36.769
O 26.811 26.854 36.723
O 24.869 28.097 36.884
C 24.098 26.869 37.137
H 24.366 26.543 38.178
H 23.127 27.274 37.139
H 24.169 26.1   36.387
C 20.393 30.398 32.405
H 19.88  31.306 32.632
H 19.679 29.496 32.426
C 21.189 30.628 31.116
H 21.85  29.745 30.846
C 21.332 31.722 30.391
C 20.355 32.964 30.444
H 19.383 32.77  30.02 
H 20.256 33.279 31.454
H 20.823 33.733 29.804
C 22.251 31.623 29.143
H 22.74  30.697 29.187
H 22.845 32.513 29.309
C 21.554 31.731 27.806
H 20.478 31.616 27.88 
H 21.773 30.803 27.255
C 21.729 33.032 27.064
H 22.453 33.609 27.549
H 20.8   33.648 27.15 
C 22.225 32.71  25.549
H 22.934 31.946 25.45 
C 22.769 34.012 24.805
H 23.788 34.171 25.175
H 22.932 33.741 23.728
H 22.023 34.893 24.683
C 21.126 32.015 24.665
H 20.867 31.021 25.08 
H 21.606 31.74  23.719
C 19.907 33.022 24.323
H 20.035 33.438 23.366
H 19.911 33.867 25.031
C 18.516 32.32  24.249
H 18.708 31.21  24.433
H 18.035 32.511 23.298
C 17.426 32.722 25.329
H 17.396 33.786 25.314
C 18.002 32.345 26.76 
H 18.217 31.283 26.797
H 18.902 32.866 26.966
H 17.408 32.672 27.575
C 16.026 32.117 25.06 
H 16.089 31.023 25.066
H 15.645 32.551 24.164
C 15.016 32.478 26.156
H 15.312 33.376 26.665
H 14.997 31.966 27.113
C 13.574 32.886 25.57 
H 13.553 32.403 24.546
H 13.564 33.914 25.489
C 12.385 32.424 26.433
H 12.389 31.369 26.583
C 11.036 32.696 25.664
H 10.874 32.016 24.859
H 10.263 32.508 26.356
H 11.055 33.736 25.235
C 12.238 33.228 27.73 
H 13.131 32.953 28.309
H 12.189 34.345 27.594
H 11.373 32.947 28.298
