137

Mg 35.978 31.643 34.754
C 34.067 29.27  33.042
C 38.483 31.029 32.496
H 39.451 30.899 31.973
C 37.858 33.815 36.409
H 38.449 34.669 36.736
C 33.564 31.611 37.31 
H 32.787 31.789 38.077
N 36.122 30.369 32.908
C 35.244 29.52  32.345
C 35.714 28.981 30.977
H 35.516 27.931 31.049
C 37.249 29.281 31.1  
H 37.512 29.898 30.18 
C 37.361 30.264 32.237
C 38.215 27.986 31.155
H 37.724 27.418 31.963
H 38.093 27.352 30.214
H 39.302 28.247 31.243
C 34.88  29.605 29.79 
H 35.123 30.65  29.846
H 33.84  29.552 30.1  
C 35.05  28.937 28.429
H 35.441 29.648 27.673
H 35.802 28.15  28.415
C 33.756 28.552 27.679
O 33.266 29.041 26.665
O 33.155 27.554 28.424
N 37.813 32.376 34.415
C 38.651 32.059 33.416
C 39.796 32.833 33.519
C 39.688 33.556 34.706
C 38.408 33.318 35.267
C 41.056 32.731 32.599
H 41.789 33.575 32.675
H 41.626 31.829 32.918
H 40.872 32.652 31.528
C 40.718 34.352 35.352
H 40.996 34.133 36.414
C 41.129 35.397 34.67 
H 40.849 35.526 33.605
H 41.856 36.198 35.009
N 35.77  32.539 36.65 
C 36.63  33.463 37.085
C 36.119 34.018 38.335
C 34.807 33.407 38.565
C 34.661 32.466 37.493
C 36.794 34.957 39.224
H 37.764 35.28  38.849
H 36.198 35.761 39.386
H 36.991 34.446 40.253
C 33.823 33.68  39.689
H 33.034 32.961 39.805
H 34.293 33.598 40.6  
C 33.201 35.098 39.615
H 32.337 35.158 40.273
H 33.877 35.861 39.922
H 32.917 35.277 38.55 
N 34.208 30.641 35.185
C 33.343 30.723 36.278
C 32.064 30.064 35.971
C 32.358 29.456 34.677
C 33.672 29.756 34.302
C 30.85  29.91  36.869
H 29.994 29.224 36.586
H 31.115 29.714 37.901
H 30.316 30.909 36.815
C 31.829 28.566 33.604
O 30.767 27.938 33.52 
C 32.935 28.382 32.593
H 32.621 28.56  31.59 
C 33.39  26.897 32.78 
O 33.92  26.474 33.811
O 33.198 26.17  31.642
C 33.892 24.877 31.723
H 33.735 24.287 30.784
H 34.892 25.079 31.759
H 33.629 24.208 32.579
C 31.768 27.362 28.069
H 31.69  26.632 27.262
H 31.317 28.357 27.762
C 30.924 26.947 29.24 
H 30.747 27.7   30.017
C 30.203 25.803 29.45 
C 30.525 24.518 28.64 
H 30.609 23.745 29.355
H 29.709 24.196 27.928
H 31.511 24.628 28.092
C 29.404 25.594 30.697
H 29.573 26.393 31.438
H 29.807 24.71  31.049
C 27.946 25.217 30.536
H 27.784 24.153 30.264
H 27.582 25.668 29.614
C 26.987 25.704 31.529
H 26.594 26.7   31.279
H 27.632 25.781 32.424
C 25.744 24.766 31.86 
H 26.23  23.856 32.208
C 24.95  24.394 30.525
H 24.407 23.499 30.918
H 24.287 25.149 30.108
H 25.592 23.99  29.771
C 24.866 25.318 33.043
H 25.403 25.242 33.969
H 24.079 24.604 33.126
C 24.087 26.623 32.765
H 23.028 26.529 32.547
H 24.478 27.087 31.878
C 24.291 27.593 33.886
H 24.531 28.514 33.368
H 25.007 27.313 34.567
C 22.968 27.939 34.65 
H 22.272 28.113 33.874
C 23.193 29.306 35.473
H 23.395 30.197 34.842
H 22.418 29.604 36.165
H 23.995 29.096 36.166
C 22.575 26.716 35.546
H 23.318 26.8   36.381
H 22.687 25.857 35.018
C 21.074 26.709 36.094
H 20.545 26.068 35.436
H 20.608 27.688 35.998
C 20.876 26.373 37.583
H 20.37  27.184 38.076
H 21.834 26.312 38.091
C 20.206 24.962 37.879
H 20.761 24.251 37.28 
C 18.683 24.849 37.641
H 18.222 23.867 37.917
H 18.197 25.672 38.173
H 18.508 25.052 36.567
C 20.558 24.523 39.302
H 20.313 23.451 39.438
H 21.605 24.642 39.489
H 19.906 25.049 39.969
