137

Mg 35.462 31.313 35.016
C 33.902 29.069 32.983
C 38.202 31.328 32.926
H 39.038 31.161 32.158
C 37.071 33.442 37.022
H 37.501 34.216 37.683
C 32.819 31.085 37.252
H 32.019 31.028 38.004
N 35.996 30.392 33.145
C 35.151 29.498 32.472
C 35.734 29.037 31.142
H 35.701 27.901 31.231
C 37.168 29.571 31.242
H 37.425 30.125 30.385
C 37.113 30.503 32.511
C 38.198 28.385 31.417
H 37.972 27.714 32.265
H 38.118 27.8   30.486
H 39.199 28.824 31.452
C 34.869 29.526 29.897
H 35.083 30.592 29.82 
H 33.835 29.411 30.164
C 35.277 28.964 28.552
H 35.851 29.664 27.962
H 36.015 28.199 28.668
C 34.119 28.348 27.718
O 33.991 28.402 26.494
O 33.103 27.827 28.464
N 37.338 32.293 34.978
C 38.283 32.235 33.984
C 39.354 33.112 34.2  
C 39.081 33.642 35.517
C 37.779 33.133 35.911
C 40.537 33.278 33.333
H 40.384 33.179 32.216
H 40.945 34.294 33.544
H 41.291 32.562 33.589
C 39.992 34.499 36.345
H 39.65  34.742 37.357
C 41.299 34.789 36.116
H 42.031 34.316 35.378
H 41.828 35.357 36.823
N 35.065 32.062 36.911
C 35.842 32.973 37.565
C 35.302 33.295 38.85 
C 34.01  32.735 38.835
C 33.909 31.96  37.642
C 35.984 34.192 39.796
H 35.242 34.423 40.6  
H 36.764 33.594 40.297
H 36.261 35.018 39.261
C 32.87  32.873 39.886
H 32.283 31.934 39.978
H 33.328 33.061 40.867
C 31.94  33.96  39.452
H 30.974 33.958 39.968
H 32.338 34.958 39.546
H 31.73  33.77  38.413
N 33.754 30.235 35.148
C 32.741 30.245 36.106
C 31.609 29.469 35.734
C 32.005 28.95  34.468
C 33.32  29.442 34.192
C 30.266 29.366 36.371
H 29.809 28.478 35.945
H 30.405 29.273 37.453
H 29.711 30.322 36.224
C 31.625 28.129 33.31 
O 30.622 27.551 33.068
C 32.855 28.083 32.394
H 32.69  28.224 31.385
C 33.45  26.765 32.611
O 34.205 26.494 33.554
O 33.154 25.954 31.629
C 33.918 24.721 31.694
H 33.703 24.006 30.94 
H 34.995 24.883 31.718
H 33.742 24.096 32.526
C 31.856 27.458 27.872
H 32.035 26.897 26.95 
H 31.394 28.346 27.446
C 31.034 26.751 28.93 
H 30.764 27.33  29.778
C 30.565 25.472 28.946
C 31.033 24.473 27.927
H 31.674 23.656 28.341
H 30.146 23.984 27.419
H 31.573 25.001 27.193
C 29.614 24.893 30.044
H 29.538 25.678 30.817
H 30.094 24.091 30.478
C 28.234 24.335 29.689
H 28.304 23.251 29.751
H 28.082 24.733 28.646
C 27.042 24.891 30.586
H 26.575 25.767 30.08 
H 27.452 25.287 31.469
C 25.906 23.927 31.018
H 26.416 22.976 31.23 
C 25.012 23.614 29.827
H 24.119 23.095 30.073
H 24.692 24.616 29.49 
H 25.654 23.191 28.99 
C 25.11  24.435 32.254
H 25.823 24.334 33.098
H 24.302 23.748 32.271
C 24.254 25.772 32.169
H 23.224 25.462 31.928
H 24.568 26.279 31.269
C 24.316 26.793 33.332
H 24.361 27.842 32.871
H 25.233 26.657 33.851
C 23.105 26.734 34.379
H 22.162 26.626 33.727
C 23.16  28.009 35.244
H 23.12  28.924 34.616
H 22.2  28.19 35.78
H 24.026 28.006 35.908
C 23.1   25.476 35.266
H 23.978 25.545 35.88 
H 23.21  24.621 34.561
C 21.829 25.161 35.994
H 21.653 24.045 35.943
H 20.962 25.541 35.6  
C 21.96  25.629 37.427
H 21.088 26.279 37.755
H 22.887 26.218 37.464
C 22.197 24.599 38.553
H 23.061 24.054 38.277
C 20.864 23.781 38.741
H 21.037 22.912 39.256
H 20.093 24.387 39.283
H 20.475 23.395 37.774
C 22.668 25.062 39.993
H 22.771 24.263 40.709
H 23.658 25.51  39.849
H 22.069 25.899 40.382
