137

Mg 29.833 28.781 33.392
C 27.487 28.163 36.011
C 27.168 29.716 31.442
H 26.275 29.936 30.873
C 31.972 29.462 30.871
H 32.662 29.716 30.093
C 32.36  27.949 35.508
H 33.189 27.764 36.161
N 27.608 28.849 33.692
C 26.879 28.541 34.828
C 25.391 28.801 34.588
H 24.907 27.853 34.681
C 25.308 29.114 33.033
H 24.813 30.076 32.924
C 26.78  29.296 32.719
C 24.559 28.029 32.16 
H 24.433 28.446 31.187
H 25.08  27.109 32.024
H 23.627 27.877 32.59 
C 24.732 29.894 35.436
H 25.13  30.753 35.039
H 25.09  29.783 36.486
C 23.205 29.928 35.422
H 22.693 28.911 35.245
H 22.821 30.247 36.424
C 22.573 30.938 34.532
O 22.235 32.099 34.737
O 22.361 30.322 33.293
N 29.609 29.505 31.447
C 28.429 29.817 30.867
C 28.719 30.37  29.541
C 30.085 30.31  29.343
C 30.628 29.74  30.557
C 27.516 30.744 28.594
H 27.18  31.774 28.787
H 27.858 30.452 27.61 
H 26.677 30.055 28.812
C 30.834 30.648 28.055
H 31.789 30.192 27.984
C 30.447 31.512 27.118
H 29.526 32.028 27.292
H 31.022 31.789 26.228
N 31.836 28.609 33.147
C 32.571 28.944 32.068
C 33.949 28.839 32.351
C 34.041 28.296 33.648
C 32.69  28.301 34.198
C 35.101 29.044 31.459
H 35.597 28.185 31.402
H 34.92  29.375 30.428
H 35.942 29.61  31.868
C 35.306 28.163 34.416
H 35.157 27.422 35.213
H 36.155 27.837 33.709
C 35.756 29.426 35.172
H 36.689 29.337 35.801
H 35.963 30.146 34.351
H 34.957 29.79  35.8  
N 29.957 28.228 35.3  
C 31.098 27.903 36.07 
C 30.676 27.493 37.404
C 29.3   27.563 37.414
C 28.878 27.922 36.113
C 31.559 27.24  38.52 
H 31.241 27.734 39.41 
H 31.577 26.228 38.638
H 32.473 27.665 38.229
C 28.052 27.419 38.232
O 27.992 27.233 39.452
C 26.861 27.745 37.332
H 26.282 28.475 37.85 
C 26.24  26.391 37.281
O 26.682 25.461 36.616
O 25.126 26.259 38.125
C 24.637 24.904 38.357
H 25.3   24.373 38.997
H 23.676 24.945 38.895
H 24.393 24.392 37.422
C 21.462 31.076 32.44 
H 21.94  32.01  32.151
H 20.429 31.377 32.902
C 21.226 30.151 31.195
H 20.737 29.181 31.406
C 21.671 30.411 29.886
C 22.679 31.428 29.321
H 22.045 32.121 28.752
H 23.17  31.929 30.161
H 23.419 31.021 28.665
C 21.183 29.375 28.891
H 20.543 28.605 29.27 
H 21.974 28.858 28.35 
C 20.29  30.055 27.874
H 19.854 30.998 28.253
H 19.402 29.429 27.77 
C 20.895 30.216 26.488
H 21.865 29.787 26.466
H 20.807 31.315 26.383
C 20.202 29.531 25.267
H 20.236 28.448 25.568
C 21.019 29.536 23.946
H 20.51  29.063 23.163
H 21.082 30.566 23.627
H 22.088 29.183 24.113
C 18.781 29.809 25.01 
H 18.263 29.436 25.902
H 18.478 29.057 24.27 
C 18.325 31.198 24.553
H 17.898 31.146 23.488
H 19.184 31.797 24.564
C 17.208 31.877 25.399
H 17.711 32.575 26.118
H 16.789 31.035 25.976
C 15.991 32.551 24.699
H 15.739 31.8   23.991
C 16.518 33.712 23.865
H 16.922 34.471 24.539
H 17.382 33.358 23.212
H 15.767 34.024 23.139
C 14.832 32.98  25.63 
H 15.241 33.59  26.459
H 14.255 32.1   25.939
C 13.723 33.851 25.073
H 13.325 33.511 24.134
H 14.082 34.87  24.918
C 12.497 34.024 25.993
H 12.635 33.271 26.775
H 11.654 33.682 25.432
C 12.326 35.468 26.678
H 13.335 35.718 26.806
C 11.605 35.372 28.061
H 12.301 35.    28.861
H 11.537 36.364 28.495
H 10.611 34.912 28.088
C 11.625 36.381 25.637
H 12.195 36.298 24.704
H 10.655 35.935 25.48 
H 11.516 37.32  26.125
