137

Mg 25.669 32.136 37.024
C 23.392 31.857 39.681
C 23.388 34.12  35.419
H 22.693 34.848 34.998
C 28.069 33.076 34.884
H 28.895 33.422 34.233
C 28.051 30.43  38.948
H 28.761 29.888 39.622
N 23.643 32.822 37.443
C 22.93  32.626 38.626
C 21.469 33.154 38.501
H 20.746 32.392 38.532
C 21.412 33.53  36.972
H 21.035 34.567 36.768
C 22.874 33.45  36.547
C 20.61  32.544 36.102
H 21.148 31.618 36.051
H 19.604 32.396 36.509
H 20.6   32.823 35.026
C 21.201 34.301 39.573
H 21.496 35.241 39.198
H 21.724 34.    40.448
C 19.677 34.513 39.878
H 19.136 33.691 39.424
H 19.551 34.331 40.902
C 18.968 35.806 39.538
O 19.211 36.887 39.985
O 18.033 35.596 38.563
N 25.666 33.234 35.264
C 24.667 34.068 34.852
C 25.154 34.921 33.763
C 26.54  34.541 33.568
C 26.814 33.535 34.63 
C 24.176 35.81  32.954
H 23.536 36.488 33.553
H 24.713 36.55  32.386
H 23.626 35.11  32.366
C 27.567 35.003 32.581
H 28.651 34.93  32.849
C 27.205 35.427 31.359
H 26.122 35.563 30.94 
H 28.025 35.725 30.628
N 27.664 31.771 36.901
C 28.478 32.194 35.93 
C 29.828 31.637 36.096
C 29.794 30.936 37.337
C 28.442 30.999 37.772
C 31.08  31.988 35.345
H 30.778 32.428 34.39 
H 31.818 32.535 35.87 
H 31.531 31.026 35.093
C 30.915 30.296 38.042
H 30.654 29.238 38.372
H 31.763 30.269 37.346
C 31.334 31.2   39.266
H 32.181 30.804 39.821
H 31.589 32.156 38.842
H 30.531 31.465 39.956
N 25.733 31.212 38.848
C 26.782 30.586 39.583
C 26.242 30.02  40.834
C 24.967 30.627 40.915
C 24.694 31.291 39.706
C 26.85  29.066 41.847
H 26.157 29.001 42.637
H 27.036 28.09  41.416
H 27.781 29.458 42.164
C 23.822 30.709 41.807
O 23.621 30.237 42.947
C 22.825 31.614 41.074
H 22.902 32.483 41.699
C 21.452 31.011 41.055
O 20.958 30.338 40.154
O 20.762 31.464 42.117
C 19.351 31.159 41.956
H 18.952 31.73  42.807
H 18.968 31.598 40.975
H 19.136 30.097 41.913
C 17.323 36.781 38.229
H 17.972 37.537 37.748
H 16.936 37.177 39.175
C 16.09  36.546 37.375
H 15.325 37.331 37.534
C 15.785 35.491 36.623
C 16.706 34.325 36.102
H 16.488 34.001 35.104
H 17.702 34.697 36.091
H 16.722 33.499 36.716
C 14.497 35.416 35.865
H 13.583 35.836 36.357
H 14.154 34.389 35.845
C 14.581 36.008 34.483
H 14.248 35.28  33.703
H 15.637 36.321 34.376
C 13.677 37.291 34.282
H 13.565 37.99  35.156
H 12.616 36.901 34.162
C 14.113 38.081 33.05 
H 15.203 38.252 32.991
C 13.233 39.466 33.011
H 13.314 40.123 33.87 
H 13.6   39.914 32.142
H 12.22  39.13  32.801
C 13.931 37.32  31.76 
H 14.711 36.56  31.582
H 14.146 38.014 31.002
C 12.515 36.747 31.419
H 12.319 37.089 30.404
H 11.73  37.065 32.104
C 12.529 35.177 31.339
H 12.474 34.797 32.374
H 13.521 34.798 30.948
C 11.282 34.532 30.573
H 10.312 34.998 30.871
C 11.128 33.119 31.122
H 10.291 32.521 30.684
H 11.984 32.534 30.779
H 10.977 33.236 32.244
C 11.384 34.592 28.982
H 12.171 33.956 28.637
H 11.69  35.564 28.661
C 10.1   34.199 28.109
H  9.912 34.893 27.256
H  9.284 34.297 28.878
C 10.09  32.791 27.507
H  9.443 32.135 28.052
H 11.153 32.385 27.574
C  9.645 32.673 26.029
H  8.8   33.398 25.822
C  8.874 31.335 25.742
H  8.592 31.227 24.727
H  9.495 30.419 25.975
H  8.046 31.143 26.476
C 10.783 32.875 24.996
H 10.458 32.579 23.999
H 11.114 33.888 24.913
H 11.619 32.217 25.235
