137

Mg 34.268 37.215 35.209
C 31.271 35.83  34.253
C 35.847 34.484 33.971
H 36.353 33.553 33.586
C 37.238 38.406 36.439
H 38.162 38.786 36.878
C 32.573 40.002 36.456
H 31.949 40.793 36.891
N 33.623 35.384 34.377
C 32.384 35.088 33.948
C 32.367 33.802 33.213
H 31.591 33.296 33.847
C 33.793 33.243 33.494
H 34.232 33.032 32.47 
C 34.489 34.49  33.976
C 33.784 32.092 34.521
H 33.77  32.456 35.557
H 32.883 31.471 34.479
H 34.535 31.357 34.379
C 31.913 33.848 31.719
H 32.607 34.488 31.131
H 30.922 34.253 31.651
C 31.859 32.462 30.927
H 32.769 32.433 30.244
H 31.858 31.61  31.615
C 30.644 32.111 29.997
O 30.538 32.445 28.849
O 29.571 31.62  30.816
N 36.187 36.626 35.056
C 36.678 35.492 34.468
C 38.16  35.404 34.541
C 38.514 36.479 35.389
C 37.286 37.266 35.638
C 39.061 34.345 33.886
H 39.928 34.862 33.511
H 39.365 33.652 34.725
H 38.547 33.882 33.015
C 39.769 36.848 36.062
H 40.243 37.861 36.011
C 40.43  35.903 36.777
H 39.984 34.864 36.912
H 41.457 36.027 37.252
N 34.732 38.882 36.225
C 36.064 39.219 36.656
C 36.044 40.49  37.353
C 34.704 40.93  37.411
C 33.961 39.898 36.712
C 37.29  41.102 37.947
H 38.077 40.831 37.279
H 37.435 42.211 38.129
H 37.343 40.606 38.919
C 34.236 42.178 38.104
H 33.572 41.949 38.848
H 35.085 42.636 38.588
C 33.656 43.203 37.094
H 33.689 44.148 37.545
H 34.363 43.086 36.29 
H 32.659 42.956 36.726
N 32.321 37.826 35.404
C 31.799 38.98  35.904
C 30.355 38.903 35.798
C 30.159 37.674 35.139
C 31.338 37.069 35.014
C 29.324 39.857 36.352
H 29.62  40.89  36.042
H 28.328 39.734 35.803
H 29.248 39.742 37.423
C 29.101 36.884 34.516
O 27.907 37.11  34.377
C 29.772 35.608 33.976
H 29.617 35.506 32.91 
C 29.104 34.49  34.675
O 29.133 34.258 35.863
O 28.578 33.625 33.778
C 28.168 32.33  34.374
H 27.937 31.632 33.582
H 29.042 31.909 34.788
H 27.293 32.403 35.051
C 28.371 31.274 29.95 
H 28.541 30.296 29.478
H 28.181 31.95  29.135
C 27.311 31.396 30.966
H 27.044 32.402 31.34 
C 26.536 30.401 31.504
C 26.548 28.913 31.29 
H 25.956 28.609 30.449
H 27.578 28.578 31.084
H 26.173 28.426 32.181
C 25.521 30.842 32.537
H 25.751 31.693 33.15 
H 25.343 30.065 33.261
C 24.11  31.184 31.85 
H 24.293 31.344 30.791
H 23.741 32.131 32.218
C 23.075 30.072 32.108
H 22.203 30.497 32.571
H 23.533 29.277 32.679
C 22.674 29.376 30.739
H 23.628 29.014 30.266
C 21.763 30.24  29.867
H 21.517 29.7   28.956
H 20.93  30.49  30.506
H 22.311 31.14  29.576
C 22.026 27.995 31.105
H 22.722 27.396 31.617
H 21.884 27.703 30.046
C 20.605 28.075 31.751
H 19.9   27.688 30.955
H 20.273 29.055 32.009
C 20.341 27.018 32.92 
H 21.284 26.47  33.114
H 19.635 26.244 32.524
C 19.875 27.698 34.231
H 18.955 28.118 33.947
C 20.737 28.875 34.758
H 20.316 29.368 35.664
H 21.828 28.71  34.855
H 20.676 29.708 33.969
C 19.738 26.66  35.393
H 19.42  27.209 36.259
H 20.717 26.401 35.659
C 18.706 25.586 35.193
H 19.015 24.648 34.613
H 17.914 26.222 34.743
C 18.025 25.121 36.47 
H 17.303 25.916 36.604
H 18.834 25.227 37.205
C 17.503 23.653 36.595
H 18.353 23.04  36.204
C 16.135 23.499 35.928
H 15.805 22.446 35.862
H 15.342 24.026 36.451
H 16.254 23.942 34.951
C 17.351 23.223 37.987
H 16.787 23.94  38.57 
H 16.846 22.187 38.042
H 18.38  23.077 38.425
