137

Mg 27.052 31.911 40.314
C 25.536 28.907 40.974
C 24.303 32.617 38.226
H 23.489 32.831 37.559
C 28.342 34.971 39.622
H 28.835 35.955 39.527
C 29.853 31.048 42.021
H 30.786 30.663 42.423
N 25.046 30.978 39.814
C 24.637 29.746 40.302
C 23.302 29.326 39.72 
H 23.502 28.443 39.039
C 23.023 30.436 38.729
H 22.097 30.92  39.026
C 24.19  31.43  38.898
C 22.932 29.845 37.21 
H 22.899 30.771 36.573
H 23.834 29.279 36.976
H 22.045 29.287 36.979
C 22.211 28.982 40.767
H 22.042 29.843 41.391
H 22.484 28.192 41.524
C 20.819 28.657 40.251
H 20.722 28.718 39.145
H 20.41  27.712 40.684
C 19.745 29.621 40.642
O 18.867 29.401 41.469
O 19.847 30.843 40.048
N 26.395 33.522 39.147
C 25.22  33.625 38.376
C 25.219 34.915 37.696
C 26.307 35.602 38.152
C 27.092 34.731 39.   
C 24.182 35.432 36.714
H 23.89  34.534 36.074
H 23.275 35.784 37.295
H 24.543 36.279 36.081
C 26.741 36.952 37.706
H 27.794 37.055 37.431
C 26.022 38.127 37.687
H 24.95  38.219 37.935
H 26.396 39.128 37.416
N 28.69  32.87  40.828
C 29.14  34.15  40.449
C 30.498 34.371 40.928
C 30.879 33.208 41.653
C 29.748 32.326 41.489
C 31.248 35.568 40.77 
H 32.307 35.355 40.704
H 30.99  36.199 40.008
H 31.016 36.147 41.676
C 32.161 33.068 42.377
H 32.852 32.348 41.915
H 32.575 34.055 42.371
C 32.074 32.636 43.868
H 33.14  32.475 44.159
H 31.608 33.409 44.514
H 31.545 31.711 43.99 
N 27.64  30.33  41.301
C 28.851 30.026 41.881
C 28.735 28.708 42.484
C 27.51  28.259 41.984
C 26.845 29.261 41.355
C 29.82  27.981 43.275
H 30.451 27.425 42.527
H 30.507 28.605 43.882
H 29.332 27.335 43.962
C 26.76  27.019 41.994
O 27.12  25.882 42.323
C 25.416 27.39  41.309
H 24.645 27.166 42.031
C 25.251 26.57  40.118
O 26.08  26.576 39.224
O 24.033 25.857 40.088
C 23.702 25.051 38.87 
H 22.915 24.342 38.94 
H 23.314 25.735 38.117
H 24.577 24.575 38.49 
C 18.813 31.807 40.408
H 19.061 32.278 41.298
H 17.85  31.324 40.319
C 18.918 32.789 39.316
H 18.088 32.81  38.609
C 19.74  33.789 39.154
C 20.886 34.206 40.029
H 21.002 33.624 40.968
H 21.816 34.094 39.477
H 20.705 35.187 40.376
C 19.614 34.689 37.866
H 19.455 34.038 37.028
H 20.589 35.    37.574
C 18.571 35.814 37.952
H 19.055 36.792 38.005
H 17.983 35.637 38.921
C 17.539 35.854 36.715
H 16.533 35.596 37.215
H 17.797 35.042 35.991
C 17.451 37.271 36.009
H 17.424 38.027 36.8  
C 16.158 37.409 35.137
H 16.077 38.382 34.644
H 16.204 36.633 34.373
H 15.277 37.243 35.77 
C 18.756 37.591 35.273
H 19.517 37.53  36.104
H 18.602 38.654 34.854
C 19.209 36.577 34.148
H 18.59  35.651 34.101
H 20.268 36.418 34.402
C 19.25  37.239 32.748
H 20.267 37.618 32.76 
H 18.525 38.083 32.813
C 19.114 36.296 31.522
H 19.764 35.504 31.732
C 19.639 37.173 30.372
H 19.582 36.668 29.348
H 18.946 37.992 30.302
H 20.662 37.54  30.484
C 17.708 35.79  31.188
H 17.077 36.632 30.872
H 17.172 35.369 32.082
C 17.717 34.628 30.234
H 17.689 33.715 30.862
H 18.613 34.645 29.615
C 16.484 34.727 29.322
H 16.562 35.55  28.653
H 15.689 34.954 30.008
C 16.107 33.419 28.568
H 16.865 33.371 27.783
C 14.703 33.796 27.941
H 14.229 32.882 27.589
H 14.081 34.426 28.606
H 14.898 34.365 27.017
C 15.857 32.131 29.442
H 15.062 31.491 29.062
H 16.8   31.613 29.457
H 15.565 32.504 30.453
