137

Mg 18.962 26.926 30.13 
C 20.774 24.585 31.943
C 18.195 28.578 33.054
H 18.01  29.081 33.985
C 17.143 29.236 28.334
H 16.56  29.978 27.752
C 19.738 25.288 27.208
H 20.081 24.687 26.367
N 19.381 26.599 32.249
C 20.172 25.57  32.742
C 20.239 25.668 34.241
H 20.055 24.701 34.756
C 19.099 26.632 34.608
H 19.211 27.478 35.283
C 18.89  27.384 33.26 
C 17.803 25.961 35.022
H 16.907 26.567 34.824
H 17.753 25.029 34.421
H 17.959 25.75  36.121
C 21.622 26.226 34.621
H 21.652 27.219 34.194
H 22.424 25.653 34.14 
C 21.802 26.282 36.121
H 20.969 25.906 36.668
H 22.755 25.765 36.43 
C 22.116 27.687 36.639
O 23.077 27.999 37.24 
O 21.032 28.5   36.475
N 17.887 28.645 30.548
C 17.673 29.12  31.827
C 16.762 30.268 31.788
C 16.552 30.522 30.405
C 17.228 29.418 29.692
C 16.346 31.009 33.027
H 16.029 32.055 32.725
H 15.466 30.462 33.352
H 17.133 31.167 33.742
C 15.789 31.57  29.795
H 15.988 31.984 28.811
C 14.6   31.94  30.315
H 14.245 31.463 31.268
H 13.927 32.809 30.018
N 18.584 27.255 28.101
C 17.78  28.209 27.542
C 17.748 28.097 26.07 
C 18.573 27.002 25.825
C 19.001 26.419 27.071
C 16.989 29.057 25.125
H 16.208 29.55  25.678
H 17.698 29.817 24.825
H 16.547 28.563 24.245
C 18.915 26.402 24.483
H 18.799 25.299 24.444
H 18.317 26.982 23.791
C 20.342 26.478 24.08 
H 20.512 25.88  23.166
H 20.616 27.577 23.835
H 20.964 26.006 24.774
N 19.999 25.321 29.646
C 20.259 24.797 28.424
C 21.169 23.657 28.589
C 21.396 23.526 29.915
C 20.6   24.572 30.52 
C 21.691 22.805 27.467
H 22.219 21.95  27.806
H 20.76  22.562 26.927
H 22.283 23.482 26.828
C 22.119 22.797 30.924
O 22.901 21.889 30.86 
C 21.787 23.467 32.259
H 22.782 23.793 32.745
C 21.283 22.336 33.003
O 20.216 21.755 32.656
O 22.028 22.071 34.136
C 21.618 20.848 34.906
H 21.23  20.041 34.348
H 22.417 20.545 35.645
H 20.76  21.215 35.464
C 21.131 29.835 37.062
H 21.758 30.523 36.471
H 21.615 29.871 38.048
C 19.749 30.3   37.036
H 19.134 29.732 37.805
C 19.178 31.382 36.503
C 19.93  32.299 35.492
H 20.526 33.15  35.953
H 20.651 31.71  34.942
H 19.19  32.718 34.85 
C 17.735 31.734 36.885
H 17.122 30.857 37.249
H 17.308 32.011 35.954
C 17.618 32.793 38.016
H 18.565 33.141 38.357
H 17.147 32.359 38.95 
C 16.678 33.868 37.583
H 16.503 33.942 36.489
H 17.127 34.797 37.777
C 15.241 33.737 38.185
H 15.407 33.843 39.251
C 14.511 32.396 37.835
H 14.028 32.315 36.842
H 15.124 31.436 37.978
H 13.678 32.283 38.538
C 14.314 34.945 37.777
H 13.328 34.934 38.252
H 14.122 34.98  36.674
C 14.772 36.33  38.149
H 15.482 36.25  38.985
H 13.994 36.91  38.457
C 15.411 36.968 36.935
H 14.783 37.783 36.644
H 15.559 36.354 36.091
C 16.74  37.778 37.113
H 17.46  37.089 37.441
C 16.663 38.77  38.307
H 16.544 38.1   39.203
H 17.647 39.353 38.424
H 15.795 39.491 38.236
C 17.225 38.492 35.791
H 18.05  39.124 36.023
H 16.43  39.094 35.359
C 17.732 37.48  34.826
H 17.795 36.471 35.262
H 18.776 37.769 34.624
C 16.871 37.369 33.561
H 17.613 37.735 32.826
H 15.972 38.043 33.551
C 16.456 35.983 33.075
H 15.914 35.334 33.854
C 17.594 35.154 32.546
H 18.338 35.678 32.   
H 18.18  34.837 33.384
H 17.143 34.272 32.026
C 15.456 36.164 31.809
H 15.171 35.266 31.387
H 14.59  36.732 32.106
H 16.041 36.748 31.044
