137

Mg 24.673 29.429 38.764
C 22.67  26.726 39.539
C 21.881 30.876 37.454
H 20.935 31.371 37.163
C 26.548 32.132 38.094
H 27.186 33.013 37.863
C 27.434 27.875 40.061
H 28.357 27.294 40.38 
N 22.568 28.867 38.48 
C 21.94  27.665 38.932
C 20.409 27.602 38.71 
H 20.094 26.708 38.161
C 20.204 28.907 37.881
H 19.42  29.568 38.315
C 21.589 29.641 37.964
C 19.724 28.776 36.417
H 19.464 29.838 36.209
H 20.588 28.461 35.858
H 18.84  28.15  36.378
C 19.65  27.521 40.134
H 20.011 28.439 40.612
H 19.968 26.613 40.657
C 18.17  27.43  39.981
H 17.982 27.672 38.983
H 17.796 26.421 40.21 
C 17.348 28.471 40.7  
O 16.967 28.24  41.829
O 17.171 29.591 39.914
N 24.282 31.203 37.917
C 23.057 31.663 37.371
C 23.284 32.904 36.62 
C 24.598 33.274 36.893
C 25.227 32.183 37.677
C 22.237 33.589 35.779
H 22.189 34.555 36.207
H 22.404 33.658 34.719
H 21.277 33.133 36.01 
C 25.325 34.535 36.507
H 26.169 34.868 37.112
C 25.039 35.373 35.475
H 24.156 35.262 34.824
H 25.814 36.242 35.382
N 26.631 29.949 39.083
C 27.229 31.131 38.749
C 28.681 31.056 39.046
C 28.875 29.797 39.626
C 27.651 29.147 39.607
C 29.665 32.186 38.833
H 30.139 32.385 39.717
H 30.442 31.762 38.184
H 29.346 33.115 38.378
C 30.127 29.297 40.331
H 30.343 28.241 40.073
H 30.928 29.897 39.951
C 30.046 29.487 41.825
H 29.384 28.648 42.133
H 31.088 29.275 42.235
H 29.91  30.54  42.116
N 25.046 27.779 39.714
C 26.217 27.174 40.115
C 26.007 25.889 40.598
C 24.643 25.734 40.438
C 24.051 26.879 39.856
C 27.092 24.989 41.145
H 26.993 25.039 42.208
H 26.817 24.019 40.807
H 28.133 25.32  40.921
C 23.561 24.77  40.706
O 23.675 23.708 41.354
C 22.14  25.371 40.197
H 21.589 25.448 41.144
C 21.642 24.423 39.182
O 22.108 24.281 38.079
O 20.561 23.694 39.656
C 19.789 22.978 38.592
H 20.501 22.403 37.997
H 18.965 22.398 39.002
H 19.383 23.665 37.848
C 16.192 30.589 40.406
H 16.478 30.96  41.368
H 15.224 30.058 40.551
C 16.101 31.663 39.318
H 16.226 31.357 38.226
C 15.772 32.941 39.522
C 15.682 33.575 40.91 
H 16.624 33.816 41.475
H 15.145 34.53  40.843
H 15.051 33.003 41.595
C 15.973 33.861 38.299
H 15.935 33.414 37.298
H 17.043 34.163 38.258
C 15.063 35.14  38.279
H 15.59  35.844 38.924
H 14.18  34.893 38.802
C 14.712 35.768 36.883
H 13.654 35.774 36.774
H 15.11  34.991 36.203
C 15.245 37.105 36.504
H 14.774 37.771 37.194
C 14.8   37.54  35.067
H 13.757 37.351 34.829
H 14.983 38.616 34.941
H 15.323 36.947 34.328
C 16.826 37.29  36.628
H 17.077 37.239 37.652
H 17.091 38.33  36.384
C 17.771 36.358 35.813
H 17.146 35.634 35.271
H 18.301 35.776 36.602
C 18.695 37.158 34.843
H 19.379 37.724 35.398
H 18.006 37.826 34.347
C 19.543 36.315 33.866
H 20.326 35.894 34.491
C 20.358 37.213 32.844
H 21.174 36.592 32.379
H 19.707 37.611 32.005
H 20.849 38.085 33.299
C 18.83  35.085 33.243
H 18.094 35.267 32.482
H 18.291 34.515 34.063
C 19.88  34.135 32.589
H 20.515 33.681 33.376
H 20.49  34.654 31.823
C 19.095 33.021 31.948
H 18.093 33.127 32.305
H 19.478 32.096 32.344
C 19.147 32.996 30.424
H 20.166 33.1   30.083
C 18.338 34.06  29.724
H 18.389 33.934 28.6  
H 17.262 34.104 29.993
H 18.803 35.056 29.978
C 18.705 31.548 29.896
H 19.011 31.409 28.845
H 19.016 30.693 30.469
H 17.638 31.487 29.936
