137

Mg 21.401 28.582 31.075
C 22.424 25.443 32.192
C 18.661 28.32  33.056
H 17.865 28.26  33.698
C 20.711 31.721 30.286
H 20.607 32.781 30.195
C 24.09  28.59  28.969
H 24.932 28.558 28.259
N 20.759 27.219 32.655
C 21.342 26.052 32.95 
C 20.62  25.343 34.127
H 20.439 24.332 33.754
C 19.311 26.252 34.215
H 19.429 26.931 35.067
C 19.533 27.28  33.188
C 17.962 25.462 34.193
H 17.723 25.009 33.279
H 17.934 24.636 34.977
H 17.186 26.103 34.529
C 21.54  25.21  35.455
H 21.947 26.189 35.73 
H 22.405 24.634 35.168
C 20.614 24.707 36.624
H 19.588 24.531 36.294
H 21.111 23.918 37.14 
C 20.562 25.568 37.824
O 21.501 25.709 38.628
O 19.436 26.339 37.838
N 19.854 29.734 31.462
C 18.8   29.47  32.285
C 17.853 30.633 32.397
C 18.521 31.618 31.585
C 19.75  31.056 31.085
C 16.577 30.723 33.276
H 16.736 31.092 34.294
H 15.922 31.423 32.721
H 15.993 29.785 33.326
C 18.113 33.098 31.468
H 18.956 33.832 31.322
C 16.852 33.588 31.376
H 16.009 32.915 31.308
H 16.765 34.665 31.217
N 22.241 29.948 29.868
C 21.857 31.244 29.69 
C 22.686 31.953 28.66 
C 23.676 31.025 28.305
C 23.393 29.792 29.105
C 22.453 33.318 28.176
H 22.162 33.981 28.99 
H 23.321 33.765 27.72 
H 21.662 33.426 27.516
C 24.762 31.16  27.22 
H 24.926 30.239 26.624
H 24.585 31.91  26.44 
C 26.134 31.461 27.857
H 26.475 30.746 28.625
H 26.803 31.476 26.981
H 26.138 32.504 28.182
N 23.076 27.348 30.66 
C 23.985 27.422 29.664
C 24.605 26.15  29.468
C 24.048 25.332 30.497
C 23.097 26.12  31.141
C 25.666 25.736 28.456
H 25.109 25.319 27.643
H 26.273 26.553 28.201
H 26.296 24.993 28.908
C 24.024 24.056 31.175
O 24.566 23.031 30.926
C 23.038 24.054 32.286
H 23.582 23.831 33.265
C 22.047 22.982 32.001
O 21.58  22.714 30.89 
O 21.63  22.369 33.146
C 20.501 21.43  33.126
H 20.01  21.487 34.092
H 19.862 21.544 32.219
H 21.053 20.491 33.003
C 19.411 27.379 38.835
H 20.228 28.039 38.838
H 19.206 27.036 39.849
C 18.148 28.168 38.486
H 17.213 28.027 39.071
C 17.991 29.182 37.559
C 19.101 29.667 36.661
H 19.315 30.729 36.948
H 20.003 29.12  36.906
H 18.846 29.581 35.58 
C 16.669 29.862 37.367
H 15.786 29.294 37.668
H 16.536 29.962 36.304
C 16.55  31.259 38.071
H 17.523 31.574 38.458
H 15.989 31.348 38.927
C 15.893 32.402 37.262
H 14.976 32.717 37.771
H 15.546 31.974 36.295
C 16.849 33.631 37.04 
H 17.805 33.205 36.758
C 17.138 34.397 38.445
H 16.259 35.05  38.496
H 17.275 33.738 39.288
H 17.944 35.097 38.417
C 16.378 34.521 35.834
H 15.301 34.72  35.955
H 16.477 34.096 34.813
C 17.041 35.887 35.894
H 18.175 35.822 35.927
H 16.815 36.421 36.829
C 16.513 36.639 34.662
H 15.825 36.065 34.085
H 17.395 36.897 34.071
C 15.779 37.892 35.081
H 16.178 38.342 35.974
C 14.295 37.439 35.631
H 13.686 37.101 34.862
H 14.398 36.611 36.285
H 13.972 38.337 36.17 
C 15.687 38.895 33.916
H 14.995 39.663 34.242
H 15.259 38.276 33.093
C 17.043 39.495 33.477
H 17.202 39.171 32.433
H 17.895 39.183 34.061
C 17.19  41.    33.623
H 18.167 41.153 34.14 
H 16.386 41.35  34.216
C 16.994 41.721 32.228
H 17.522 41.225 31.438
C 17.457 43.231 32.288
H 18.452 43.32  32.698
H 17.419 43.598 31.247
H 16.846 43.91  32.857
C 15.496 41.588 31.711
H 15.375 42.232 30.8  
H 15.306 40.496 31.604
H 14.85  41.975 32.533
