137

Mg 26.052 28.242 38.029
C 24.257 25.46  39.317
C 26.533 26.481 35.207
H 26.66  25.929 34.347
C 28.147 30.664 36.949
H 28.774 31.429 36.625
C 25.216 29.941 40.836
H 24.962 30.646 41.655
N 25.498 26.17  37.378
C 24.826 25.17  38.106
C 24.534 23.947 37.256
H 24.924 23.038 37.741
C 25.282 24.383 35.934
H 24.558 24.267 35.123
C 25.777 25.748 36.119
C 26.341 23.378 35.573
H 26.993 23.113 36.39 
H 25.948 22.479 35.17 
H 26.932 23.871 34.819
C 23.104 23.517 37.068
H 22.504 24.338 36.694
H 22.757 23.09  38.026
C 22.883 22.37  36.086
H 23.737 21.999 35.462
H 22.457 21.485 36.673
C 21.821 22.536 35.012
O 21.65  23.591 34.475
O 21.01  21.496 34.826
N 27.198 28.498 36.397
C 27.238 27.664 35.262
C 28.15  28.159 34.272
C 28.49  29.444 34.772
C 28.001 29.516 36.115
C 28.581 27.441 33.029
H 28.755 26.389 33.243
H 27.84  27.534 32.275
H 29.549 27.768 32.598
C 29.274 30.553 34.161
H 29.029 31.637 34.341
C 30.337 30.386 33.339
H 30.689 29.441 32.987
H 30.981 31.215 32.969
N 26.67  29.97  38.821
C 27.531 30.829 38.239
C 27.694 32.059 39.078
C 26.774 31.862 40.076
C 26.175 30.542 39.966
C 28.615 33.285 38.702
H 29.608 33.164 39.19 
H 28.669 33.404 37.626
H 28.2   34.163 39.175
C 26.435 32.883 41.125
H 26.27  32.347 42.061
H 27.326 33.5   41.259
C 25.092 33.676 40.806
H 24.307 32.941 40.788
H 24.892 34.462 41.566
H 25.112 34.115 39.829
N 24.975 27.883 39.729
C 24.713 28.64  40.812
C 23.861 28.051 41.785
C 23.614 26.75  41.188
C 24.379 26.732 40.055
C 23.467 28.77  43.133
H 22.851 29.653 42.915
H 22.773 28.09  43.723
H 24.36  29.043 43.704
C 22.921 25.481 41.405
O 22.189 25.2   42.348
C 23.432 24.521 40.304
H 22.543 23.909 40.092
C 24.386 23.557 40.989
O 25.153 23.872 41.891
O 24.185 22.292 40.522
C 25.07  21.26  41.083
H 25.19  21.413 42.167
H 24.636 20.236 40.891
H 26.044 21.379 40.726
C 19.877 21.744 33.876
H 20.138 22.384 33.023
H 19.089 22.229 34.278
C 19.429 20.354 33.353
H 19.827 19.485 33.97 
C 18.794 20.056 32.204
C 18.538 21.214 31.283
H 19.555 21.386 30.959
H 17.89  20.816 30.519
H 17.962 22.085 31.607
C 18.435 18.56  31.842
H 18.691 18.059 32.722
H 19.238 18.245 31.166
C 16.983 18.185 31.352
H 16.282 19.06  31.431
H 16.537 17.452 32.024
C 17.067 17.633 29.909
H 18.075 17.46  29.698
H 16.799 18.42  29.235
C 16.43  16.213 29.72 
H 16.929 15.533 30.412
C 16.869 15.602 28.403
H 16.526 16.061 27.486
H 17.931 15.784 28.456
H 16.504 14.607 28.401
C 14.855 16.064 29.946
H 14.731 16.146 31.013
H 14.501 15.057 29.631
C 13.948 17.076 29.232
H 14.509 17.82  28.678
H 13.477 17.732 30.046
C 12.815 16.354 28.467
H 11.924 16.376 29.131
H 12.945 15.305 28.122
C 12.5   17.077 27.11 
H 13.33  17.536 26.621
C 11.55  18.301 27.424
H 11.162 18.714 26.502
H 10.621 18.006 27.969
H 12.178 19.082 27.927
C 11.955 16.097 25.985
H 11.547 16.653 25.214
H 11.092 15.52  26.306
C 13.108 15.164 25.369
H 14.092 15.364 25.818
H 13.221 15.302 24.269
C 12.911 13.675 25.536
H 12.701 13.162 24.533
H 12.01  13.515 26.043
C 14.061 12.871 26.231
H 14.156 13.265 27.214
C 15.359 12.932 25.322
H 15.625 13.947 25.234
H 16.168 12.308 25.632
H 15.129 12.54  24.318
C 13.591 11.46  26.73 
H 12.648 11.528 27.264
H 13.639 10.884 25.756
H 14.311 11.023 27.418
