137

Mg 20.316 25.25  32.096
C 22.747 24.211 34.426
C 19.29  27.676 34.297
H 19.061 28.553 34.952
C 18.258 26.446 29.7  
H 17.554 26.846 28.967
C 21.429 22.815 29.986
H 21.905 22.189 29.257
N 21.086 25.926 34.065
C 22.108 25.385 34.87 
C 22.152 26.019 36.271
H 21.823 25.357 37.007
C 21.041 27.144 36.108
H 21.592 28.059 36.073
C 20.416 26.869 34.685
C 20.021 27.097 37.303
H 19.229 27.799 37.038
H 19.695 26.089 37.459
H 20.337 27.558 38.246
C 23.546 26.701 36.568
H 24.007 27.391 35.852
H 24.221 25.811 36.656
C 23.685 27.512 37.878
H 22.95  27.337 38.644
H 24.652 27.34  38.215
C 23.791 29.    37.825
O 24.801 29.66  37.701
O 22.528 29.523 37.914
N 19.034 26.854 31.984
C 18.638 27.661 33.062
C 17.636 28.569 32.653
C 17.284 28.145 31.298
C 18.216 27.148 30.924
C 17.019 29.7   33.386
H 17.784 30.067 34.038
H 16.723 30.397 32.636
H 16.159 29.225 33.871
C 16.222 28.588 30.349
H 15.521 27.749 30.048
C 15.874 29.825 29.962
H 16.464 30.667 30.401
H 15.102 29.982 29.201
N 19.908 24.76  30.159
C 19.058 25.307 29.322
C 19.178 24.77  27.978
C 20.101 23.699 28.073
C 20.511 23.693 29.458
C 18.461 25.417 26.785
H 18.275 26.538 26.861
H 19.007 25.267 25.858
H 17.514 24.916 26.704
C 20.576 22.661 27.028
H 21.66  22.827 26.813
H 20.472 21.666 27.526
C 19.834 22.574 25.694
H 18.787 22.443 25.732
H 20.039 23.527 25.146
H 20.319 21.769 25.17 
N 21.632 23.804 32.19 
C 22.032 22.875 31.306
C 23.118 22.087 31.691
C 23.364 22.536 32.979
C 22.491 23.628 33.223
C 23.776 20.994 31.011
H 24.43  21.395 30.263
H 24.325 20.343 31.746
H 23.01  20.457 30.433
C 24.197 22.359 34.148
O 25.113 21.625 34.372
C 23.828 23.369 35.128
H 24.711 23.933 35.379
C 23.129 22.65  36.241
O 22.129 21.986 36.075
O 23.622 22.967 37.486
C 22.923 22.534 38.708
H 22.248 21.709 38.497
H 23.714 22.1   39.263
H 22.464 23.306 39.359
C 22.551 31.014 38.065
H 22.915 31.412 37.138
H 23.175 31.372 38.923
C 21.148 31.543 38.268
H 20.77  31.18  39.229
C 20.303 32.063 37.343
C 20.602 32.444 35.881
H 20.121 31.874 35.094
H 20.261 33.506 35.742
H 21.663 32.498 35.783
C 18.904 32.275 37.925
H 18.863 31.908 38.936
H 18.121 31.766 37.366
C 18.519 33.737 37.879
H 19.295 34.456 37.492
H 18.162 34.069 38.86 
C 17.492 33.938 36.728
H 17.657 33.297 35.906
H 17.933 34.886 36.286
C 15.948 34.    37.083
H 15.704 34.517 37.957
C 15.313 32.547 37.201
H 15.517 31.909 36.288
H 15.809 32.11  38.049
H 14.244 32.578 37.48 
C 15.159 34.861 35.982
H 14.117 34.854 36.194
H 15.313 34.35  35.035
C 15.386 36.383 35.968
H 16.119 36.581 36.755
H 14.449 36.952 36.127
C 16.177 36.792 34.745
H 15.758 36.396 33.808
H 17.212 36.376 34.748
C 16.314 38.316 34.492
H 16.879 38.755 35.292
C 14.93  38.967 34.379
H 15.105 39.999 34.103
H 14.186 38.562 33.656
H 14.454 38.972 35.34 
C 17.135 38.588 33.195
H 17.154 39.745 33.118
H 16.669 38.197 32.288
C 18.64  38.137 33.15 
H 19.038 37.957 34.133
H 19.225 38.839 32.699
C 18.839 36.964 32.198
H 18.777 37.247 31.151
H 18.01  36.275 32.275
C 20.14  36.086 32.501
H 20.004 35.79  33.554
C 21.502 36.779 32.095
H 22.302 36.124 32.436
H 21.663 36.986 31.02 
H 21.637 37.689 32.618
C 20.016 34.902 31.638
H 20.961 34.294 31.735
H 19.211 34.163 31.837
H 20.094 35.153 30.566
