137

Mg 22.508 16.914 26.122
C 23.666 17.975 23.115
C 24.518 19.226 27.618
H 25.182 19.856 28.068
C 21.156 16.081 29.001
H 20.853 15.887 30.05 
C 20.187 14.731 24.586
H 19.555 14.141 24.033
N 23.958 18.462 25.401
C 24.189 18.812 24.079
C 25.374 19.783 23.979
H 26.172 19.211 23.632
C 25.632 20.123 25.481
H 25.393 21.154 25.601
C 24.675 19.205 26.245
C 27.169 20.019 25.862
H 27.475 18.979 25.675
H 27.69  20.574 25.172
H 27.384 20.295 26.84 
C 25.133 21.058 23.212
H 24.152 21.46  23.629
H 24.887 20.833 22.184
C 26.294 22.081 23.081
H 27.202 21.516 23.299
H 26.326 22.593 22.063
C 26.27  23.279 23.966
O 27.248 23.746 24.553
O 25.026 23.928 24.004
N 22.736 17.582 28.013
C 23.593 18.545 28.445
C 23.43  18.731 29.883
C 22.344 17.873 30.312
C 22.042 17.133 29.085
C 24.23  19.726 30.727
H 25.112 20.139 30.211
H 23.408 20.39  30.907
H 24.473 19.271 31.688
C 21.818 17.671 31.725
H 21.54  16.685 31.977
C 21.57  18.718 32.579
H 21.688 19.825 32.342
H 21.156 18.544 33.625
N 20.79  15.644 26.72 
C 20.534 15.345 28.013
C 19.481 14.359 28.104
C 19.106 14.135 26.823
C 20.033 14.875 25.942
C 18.928 13.806 29.475
H 19.637 14.069 30.219
H 17.952 14.208 29.71 
H 18.935 12.737 29.415
C 18.049 13.206 26.292
H 18.504 12.405 25.745
H 17.475 12.811 27.135
C 16.897 13.926 25.498
H 17.224 14.319 24.58 
H 16.245 13.146 25.186
H 16.249 14.61  26.022
N 22.059 16.35  24.326
C 21.104 15.493 23.797
C 21.251 15.408 22.354
C 22.253 16.339 22.071
C 22.725 16.932 23.3  
C 20.524 14.499 21.382
H 21.112 14.483 20.464
H 20.537 13.447 21.674
H 19.577 14.923 21.121
C 23.002 16.838 20.975
O 23.072 16.558 19.811
C 23.829 17.968 21.604
H 23.618 18.899 21.027
C 25.189 17.566 21.292
O 25.826 16.649 21.771
O 25.767 18.586 20.552
C 27.19  18.231 20.316
H 27.647 18.937 19.653
H 27.842 18.24  21.188
H 27.259 17.272 19.905
C 24.944 25.1   24.91 
H 25.694 25.855 24.666
H 25.219 24.761 25.909
C 23.54  25.599 25.002
H 22.771 24.787 25.079
C 23.011 26.856 25.012
C 23.913 28.126 24.845
H 24.113 28.533 23.852
H 23.427 29.017 25.346
H 24.823 27.925 25.388
C 21.489 27.097 25.103
H 21.119 26.047 25.005
H 21.205 27.741 24.26 
C 21.082 27.834 26.473
H 21.944 28.401 26.884
H 20.849 27.04  27.187
C 19.983 28.922 26.321
H 19.051 28.609 26.833
H 19.694 29.053 25.315
C 20.271 30.378 26.771
H 20.976 30.883 26.134
C 20.749 30.442 28.162
H 21.194 31.412 28.269
H 19.998 30.234 28.934
H 21.542 29.738 28.298
C 18.951 31.297 26.557
H 19.219 32.251 26.998
H 18.206 30.859 27.207
C 18.353 31.368 25.183
H 17.357 31.    25.299
H 18.965 30.827 24.473
C 18.278 32.819 24.727
H 18.399 32.842 23.634
H 19.088 33.438 25.117
C 16.875 33.496 24.969
H 16.132 32.845 24.549
C 16.939 34.846 24.173
H 17.776 35.466 24.56 
H 16.95  34.813 23.128
H 16.047 35.406 24.379
C 16.52  33.809 26.49 
H 17.307 34.441 26.957
H 16.666 32.803 26.965
C 15.149 34.404 26.808
H 14.508 34.419 25.983
H 15.187 35.489 26.989
C 14.438 33.769 27.998
H 14.446 32.71  27.864
H 13.488 34.186 27.875
C 14.932 33.99  29.454
H 15.85  33.34  29.643
C 13.916 33.595 30.59 
H 13.663 32.51  30.466
H 14.436 33.772 31.497
H 12.993 34.179 30.572
C 15.273 35.449 29.798
H 15.902 35.952 29.042
H 14.34  36.018 29.967
H 15.898 35.506 30.71 
