137

Mg 27.273 26.541 44.638
C 24.097 25.079 44.645
C 27.65  25.528 41.442
H 27.758 25.097 40.413
C 30.247 28.042 44.62 
H 31.264 28.53  44.539
C 26.656 27.531 47.925
H 26.433 27.74  48.972
N 25.943 25.603 43.186
C 24.695 25.027 43.413
C 24.099 24.418 42.159
H 23.507 23.48  42.371
C 25.432 24.217 41.327
H 25.302 24.475 40.317
C 26.398 25.232 41.986
C 26.014 22.76  41.374
H 25.529 22.053 40.648
H 27.117 22.74  41.127
H 25.85  22.373 42.335
C 23.212 25.388 41.43 
H 23.781 26.299 41.206
H 22.309 25.729 41.926
C 22.635 24.916 40.121
H 23.078 24.041 39.751
H 21.601 24.593 40.248
C 22.441 25.804 38.886
O 23.321 26.091 38.069
O 21.066 26.221 38.703
N 28.648 26.854 43.229
C 28.678 26.311 42.004
C 29.892 26.609 41.266
C 30.72  27.326 42.192
C 29.91  27.405 43.446
C 30.115 26.152 39.902
H 29.358 26.524 39.208
H 31.03  26.574 39.454
H 30.027 25.052 39.726
C 32.119 27.738 42.051
H 32.546 28.602 42.492
C 33.041 26.971 41.398
H 32.854 26.013 40.865
H 34.041 27.352 41.453
N 28.269 27.686 45.997
C 29.521 28.215 45.789
C 29.946 28.945 46.961
C 28.97  28.746 47.955
C 27.863 27.974 47.299
C 31.272 29.705 47.074
H 31.335 30.656 46.554
H 31.373 30.045 48.144
H 32.157 29.043 46.888
C 28.955 29.223 49.372
H 28.673 28.431 50.075
H 29.901 29.483 49.767
C 27.898 30.357 49.67 
H 27.989 30.732 50.689
H 28.134 31.258 49.034
H 26.846 29.994 49.567
N 25.743 26.381 45.985
C 25.644 26.797 47.314
C 24.351 26.43  47.898
C 23.765 25.677 46.918
C 24.6   25.695 45.784
C 23.846 26.801 49.257
H 22.905 27.249 49.191
H 23.946 25.836 49.811
H 24.407 27.562 49.842
C 22.491 24.975 46.541
O 21.429 24.79  47.109
C 22.762 24.479 45.095
H 21.936 24.873 44.504
C 22.618 22.971 45.202
O 23.257 22.257 45.884
O 21.651 22.581 44.259
C 21.268 21.099 44.476
H 20.903 20.763 43.543
H 22.138 20.473 44.766
H 20.505 20.858 45.306
C 20.868 27.358 37.741
H 21.401 27.231 36.742
H 21.147 28.228 38.236
C 19.464 27.222 37.332
H 19.108 26.233 37.158
C 18.504 28.201 37.205
C 18.706 29.722 37.412
H 19.684 29.936 37.787
H 18.508 30.351 36.583
H 18.101 29.981 38.224
C 17.028 27.846 36.924
H 17.031 26.929 36.428
H 16.702 28.65  36.217
C 16.1   27.892 38.146
H 15.501 28.817 38.025
H 16.585 28.138 39.093
C 15.163 26.692 38.362
H 15.028 26.561 39.413
H 15.738 25.806 38.053
C 13.705 26.782 37.697
H 13.152 27.753 37.826
C 12.73  25.803 38.356
H 11.699 26.012 37.85 
H 12.994 24.727 38.103
H 12.794 25.855 39.422
C 13.705 26.606 36.109
H 14.146 27.465 35.707
H 12.629 26.611 35.806
C 14.289 25.307 35.668
H 14.661 24.626 36.426
H 15.122 25.632 35.055
C 13.381 24.438 34.708
H 12.313 24.596 34.887
H 13.74  23.444 35.016
C 13.708 24.523 33.163
H 14.729 24.338 33.172
C 13.615 25.967 32.602
H 12.7   26.494 32.839
H 14.47  26.662 32.914
H 13.552 25.978 31.515
C 13.04  23.367 32.414
H 12.061 23.532 32.685
H 13.32  22.446 32.806
C 13.151 23.346 30.896
H 13.457 22.301 30.673
H 13.927 24.005 30.55 
C 11.857 23.778 30.183
H 12.117 24.657 29.491
H 11.128 24.195 30.832
C 11.231 22.557 29.422
H 11.138 21.76  30.108
C 12.099 22.133 28.216
H 13.023 21.643 28.605
H 11.614 21.395 27.567
H 12.38  22.976 27.669
C  9.775 23.086 28.874
H  9.302 22.111 28.718
H  9.144 23.673 29.52 
H  9.759 23.574 27.872
