137

Mg 29.121 28.69  42.493
C 25.735 28.902 43.103
C 28.502 27.247 39.571
H 28.355 26.713 38.64 
C 32.512 28.293 42.152
H 33.574 28.13  41.951
C 29.667 30.162 45.654
H 29.897 30.627 46.574
N 27.302 28.105 41.446
C 26.053 28.415 41.818
C 24.992 28.114 40.691
H 24.219 27.408 41.094
C 25.901 27.371 39.63 
H 25.898 27.89  38.637
C 27.317 27.654 40.214
C 25.372 25.936 39.329
H 26.128 25.383 38.765
H 25.324 25.252 40.206
H 24.386 25.954 38.731
C 24.344 29.423 40.191
H 25.108 29.999 39.663
H 24.066 29.992 41.146
C 23.101 29.255 39.287
H 22.805 28.212 39.126
H 22.24  29.901 39.575
C 23.057 29.849 37.907
O 22.336 30.767 37.49 
O 23.747 28.995 37.104
N 30.367 27.891 41.068
C 29.864 27.361 39.912
C 30.987 26.797 39.124
C 32.19  27.089 39.89 
C 31.74  27.733 41.139
C 30.847 26.047 37.768
H 29.926 25.516 37.681
H 31.07  26.749 37.084
H 31.591 25.305 37.833
C 33.602 26.738 39.644
H 34.241 26.478 40.557
C 34.242 26.662 38.473
H 33.736 26.894 37.505
H 35.324 26.441 38.328
N 30.762 29.07  43.731
C 32.081 28.892 43.338
C 33.001 29.564 44.311
C 32.15  30.293 45.198
C 30.797 29.83  44.892
C 34.448 29.554 44.305
H 34.754 30.07  43.391
H 34.858 29.928 45.18 
H 34.834 28.516 44.223
C 32.62  31.219 46.347
H 32.14  30.938 47.278
H 33.719 31.094 46.538
C 32.341 32.717 46.168
H 32.617 33.293 46.991
H 32.719 33.11  45.3  
H 31.288 32.783 46.064
N 28.015 29.303 44.148
C 28.297 29.914 45.351
C 27.099 30.158 46.131
C 26.122 29.76  45.263
C 26.71  29.304 44.069
C 27.01  30.725 47.49 
H 25.932 30.85  47.766
H 27.471 30.138 48.278
H 27.515 31.703 47.358
C 24.638 29.702 45.08 
O 23.76  30.158 45.731
C 24.382 29.126 43.742
H 23.678 29.662 43.245
C 23.721 27.813 44.19 
O 24.325 26.858 44.64 
O 22.405 27.887 43.815
C 21.552 26.737 44.172
H 21.683 26.077 43.375
H 21.834 26.356 45.164
H 20.548 27.086 44.133
C 23.582 29.116 35.671
H 24.454 29.527 35.196
H 22.702 29.679 35.396
C 23.266 27.738 35.048
H 23.77  26.861 35.528
C 22.496 27.411 33.956
C 21.835 28.36  33.027
H 20.771 28.057 32.982
H 21.844 29.399 33.287
H 22.299 28.114 32.043
C 22.575 25.974 33.558
H 23.662 25.841 33.436
H 22.181 25.644 32.56 
C 22.145 24.996 34.644
H 21.688 25.337 35.59 
H 22.989 24.483 35.033
C 21.214 23.818 34.15 
H 21.811 22.928 34.209
H 20.835 23.872 33.157
C 20.017 23.371 34.96 
H 20.318 23.383 36.023
C 19.575 22.006 34.525
H 18.954 21.476 35.223
H 19.085 22.077 33.535
H 20.318 21.276 34.366
C 18.822 24.417 35.029
H 18.883 25.09  35.902
H 18.033 23.714 35.235
C 18.383 25.308 33.901
H 19.312 25.441 33.308
H 18.005 26.277 34.222
C 17.317 24.563 33.028
H 17.335 23.508 33.203
H 17.779 24.606 32.038
C 15.864 25.091 33.109
H 15.914 26.194 32.835
C 15.215 24.854 34.467
H 15.776 25.208 35.278
H 14.211 25.294 34.532
H 15.07  23.757 34.561
C 14.967 24.45  32.027
H 14.909 23.376 32.219
H 15.425 24.423 31.035
C 13.589 25.099 31.847
H 13.52  25.566 30.916
H 13.481 25.866 32.561
C 12.422 24.086 31.844
H 12.242 23.759 32.889
H 12.711 23.189 31.273
C 11.098 24.585 31.226
H 10.939 25.588 31.512
C  9.919 23.859 31.805
H  9.861 23.996 32.873
H  8.988 24.162 31.469
H 10.08  22.822 31.568
C 11.164 24.553 29.669
H 12.028 25.129 29.28 
H 11.134 23.513 29.426
H 10.335 25.051 29.229
