137

Mg 26.45  30.064 37.94 
C 25.477 27.609 40.1  
C 26.286 27.722 35.336
H 26.389 27.021 34.49 
C 27.503 32.436 35.751
H 27.756 33.167 35.017
C 27.276 32.107 40.585
H 27.519 32.792 41.391
N 25.843 28.029 37.741
C 25.438 27.186 38.819
C 25.123 25.728 38.269
H 25.823 25.073 38.772
C 25.485 25.796 36.787
H 24.573 25.659 36.17 
C 25.929 27.272 36.547
C 26.462 24.712 36.34 
H 27.359 25.018 36.862
H 25.995 23.746 36.5  
H 26.552 24.706 35.236
C 23.637 25.298 38.539
H 23.116 26.033 37.913
H 23.397 25.545 39.511
C 23.186 23.866 38.183
H 24.014 23.25  37.796
H 22.824 23.482 39.112
C 22.048 23.592 37.101
O 21.153 24.356 36.827
O 22.261 22.325 36.484
N 26.692 30.149 35.849
C 26.598 29.069 35.012
C 26.763 29.534 33.636
C 27.01  30.937 33.773
C 27.061 31.252 35.148
C 26.648 28.649 32.418
H 26.544 29.231 31.564
H 27.569 28.102 32.343
H 25.833 27.91  32.577
C 27.308 31.855 32.69 
H 27.112 32.889 32.902
C 27.853 31.591 31.456
H 28.002 30.614 31.041
H 28.144 32.421 30.805
N 27.29  31.908 38.168
C 27.67  32.748 37.104
C 28.229 34.    37.716
C 28.158 33.898 39.131
C 27.54  32.613 39.332
C 28.551 35.196 36.935
H 27.689 35.831 37.155
H 29.383 35.714 37.421
H 28.738 35.187 35.871
C 28.58  34.972 40.189
H 29.149 34.297 40.808
H 29.251 35.731 39.763
C 27.426 35.623 40.928
H 27.099 34.908 41.703
H 27.821 36.463 41.411
H 26.67  35.874 40.263
N 26.296 29.972 39.865
C 26.676 30.841 40.877
C 26.256 30.342 42.162
C 25.825 29.054 41.927
C 25.952 28.877 40.556
C 26.373 31.019 43.442
H 27.375 31.369 43.613
H 25.721 31.861 43.529
H 26.416 30.279 44.199
C 25.357 27.86  42.519
O 25.072 27.562 43.69 
C 25.15  26.855 41.354
H 24.121 26.572 41.616
C 26.02  25.734 41.494
O 27.271 25.762 41.532
O 25.267 24.579 41.63 
C 25.944 23.453 42.339
H 25.285 22.582 42.258
H 26.798 23.241 41.788
H 26.175 23.787 43.347
C 21.133 22.045 35.648
H 21.013 22.932 35.012
H 20.275 21.838 36.233
C 21.494 20.73  34.957
H 22.095 20.041 35.586
C 21.216 20.51  33.725
C 20.695 21.491 32.748
H 20.251 21.038 31.86 
H 19.876 22.143 33.185
H 21.371 22.369 32.522
C 21.528 19.09  33.19 
H 22.251 18.628 33.9  
H 22.209 19.25  32.294
C 20.382 18.161 32.798
H 19.44  18.523 33.242
H 20.646 17.186 33.191
C 20.152 18.064 31.254
H 21.122 18.352 30.792
H 19.405 18.827 31.007
C 19.644 16.671 30.728
H 20.376 15.962 31.071
C 19.757 16.601 29.216
H 19.154 17.452 28.857
H 20.852 16.671 28.996
H 19.418 15.655 28.794
C 18.203 16.414 31.113
H 18.328 16.26  32.181
H 17.974 15.353 30.787
C 17.076 17.442 30.696
H 17.448 18.329 30.126
H 16.712 17.902 31.674
C 15.897 16.782 29.982
H 15.002 16.848 30.602
H 16.098 15.696 30.075
C 15.714 16.978 28.478
H 16.683 16.78  27.884
C 15.301 18.493 28.18 
H 15.399 18.682 27.141
H 14.312 18.614 28.666
H 16.046 19.087 28.785
C 14.592 16.049 27.962
H 14.224 16.505 27.003
H 13.702 15.921 28.566
C 15.261 14.719 27.429
H 16.211 14.585 27.934
H 15.462 14.994 26.404
C 14.491 13.414 27.669
H 13.728 13.737 28.396
H 15.18  12.836 28.284
C 14.111 12.615 26.405
H 14.864 12.684 25.614
C 12.867 13.168 25.753
H 12.028 13.06  26.446
H 13.034 14.202 25.557
H 12.723 12.638 24.815
C 13.94  11.197 26.74 
H 14.805 10.732 27.183
H 13.204 11.084 27.513
H 13.611 10.675 25.856
