137

Mg 25.425 30.419 34.749
C 24.503 29.882 38.048
C 22.229 31.498 34.146
H 21.272 31.943 33.887
C 26.231 30.963 31.46 
H 26.295 31.055 30.396
C 28.416 28.986 35.345
H 29.401 28.472 35.596
N 23.613 30.698 35.981
C 23.523 30.454 37.35 
C 22.09  30.763 37.849
H 21.575 29.89  38.218
C 21.319 31.217 36.527
H 21.    32.204 36.66 
C 22.418 31.157 35.457
C 20.093 30.44  36.197
H 20.36  29.414 35.868
H 19.56  30.392 37.157
H 19.572 31.066 35.442
C 22.181 31.848 38.925
H 22.733 32.707 38.6  
H 22.726 31.402 39.712
C 20.899 32.301 39.523
H 20.209 31.476 39.375
H 20.937 32.466 40.578
C 20.267 33.584 39.02 
O 20.765 34.412 38.349
O 18.98  33.527 39.419
N 24.44  31.141 33.084
C 23.091 31.484 33.046
C 22.746 31.767 31.663
C 23.904 31.655 30.91 
C 24.936 31.214 31.842
C 21.345 32.238 31.138
H 21.349 33.291 31.316
H 21.29  32.159 30.063
H 20.609 31.745 31.738
C 24.089 32.04  29.458
H 24.798 31.392 28.887
C 23.483 33.071 28.843
H 22.759 33.735 29.373
H 23.667 33.26  27.754
N 27.13  30.227 33.639
C 27.3   30.518 32.298
C 28.665 30.181 31.895
C 29.29  29.589 33.044
C 28.258 29.503 34.044
C 29.292 30.319 30.458
H 28.812 31.148 29.974
H 30.387 30.436 30.478
H 29.119 29.4   29.912
C 30.661 29.019 33.142
H 30.609 27.95  33.306
H 31.146 29.108 32.165
C 31.546 29.469 34.323
H 32.572 29.272 33.966
H 31.414 30.554 34.455
H 31.297 28.899 35.181
N 26.306 29.573 36.403
C 27.548 29.027 36.486
C 27.798 28.678 37.87 
C 26.563 28.828 38.544
C 25.71  29.361 37.57 
C 29.141 28.217 38.315
H 29.193 27.931 39.373
H 29.373 27.348 37.705
H 29.802 29.031 38.258
C 25.827 28.727 39.823
O 26.204 28.323 40.896
C 24.481 29.355 39.486
H 24.182 29.963 40.26 
C 23.601 28.138 39.496
O 23.55  27.262 38.667
O 22.825 28.107 40.636
C 21.888 26.896 40.67 
H 21.476 26.816 41.651
H 21.031 26.939 39.965
H 22.514 26.026 40.514
C 18.126 34.619 39.086
H 18.549 35.384 38.438
H 17.719 34.905 40.056
C 16.806 34.228 38.371
H 15.937 34.727 38.908
C 16.493 33.511 37.291
C 17.486 32.68  36.512
H 17.372 31.692 36.936
H 17.268 32.656 35.46 
H 18.468 33.127 36.673
C 15.    33.121 37.11 
H 14.398 33.628 37.812
H 14.844 32.095 37.314
C 14.491 33.269 35.683
H 14.315 32.289 35.14 
H 15.283 33.836 35.187
C 13.293 34.216 35.673
H 13.506 35.094 36.25 
H 12.479 33.607 36.126
C 12.794 34.754 34.301
H 13.663 35.2   33.737
C 11.732 35.881 34.416
H 11.617 36.31  33.433
H 10.805 35.519 34.832
H 12.104 36.7   35.06 
C 12.216 33.629 33.352
H 12.945 32.886 33.157
H 12.016 34.209 32.37 
C 10.917 32.865 33.705
H 10.19  33.084 32.925
H 10.378 33.01  34.708
C 11.093 31.247 33.586
H 10.655 31.039 34.572
H 12.137 31.021 33.636
C 10.268 30.536 32.486
H  9.2   30.885 32.561
C 10.132 29.024 32.736
H  9.532 28.618 31.995
H 11.086 28.529 32.773
H  9.446 28.845 33.635
C 10.77  30.841 31.026
H 11.856 30.762 30.968
H 10.572 31.882 30.907
C 10.181 30.126 29.835
H  9.16  30.463 29.766
H 10.157 29.125 30.052
C 11.093 30.327 28.512
H 11.876 29.466 28.513
H 11.571 31.272 28.622
C 10.295 30.309 27.194
H  9.685 29.329 27.09 
C 11.377 30.209 26.022
H 10.754 29.968 25.14 
H 11.758 31.198 25.921
H 12.15  29.426 26.299
C  9.291 31.513 27.022
H  8.871 31.513 25.989
H  8.45  31.46  27.727
H  9.841 32.426 27.247
