137

Mg 35.743 28.855 34.085
C 32.617 27.831 34.874
C 35.383 27.488 30.877
H 35.243 27.005 29.89 
C 39.038 29.601 33.321
H 40.011 30.004 33.074
C 36.333 29.936 37.314
H 36.497 30.369 38.256
N 34.149 27.848 32.989
C 32.951 27.591 33.536
C 32.078 26.785 32.61 
H 31.778 25.821 33.162
C 32.98  26.623 31.367
H 32.515 27.16  30.491
C 34.273 27.384 31.729
C 33.103 25.146 30.866
H 33.55  25.134 29.874
H 33.745 24.641 31.546
H 32.157 24.652 30.769
C 30.691 27.47  32.26 
H 31.04  28.502 32.071
H 30.167 27.376 33.193
C 29.854 26.789 31.12 
H 29.895 27.499 30.309
H 30.317 25.85  30.936
C 28.437 26.308 31.395
O 28.009 25.363 32.03 
O 27.53  27.163 30.831
N 37.065 28.5   32.353
C 36.701 27.954 31.146
C 37.821 28.17  30.163
C 38.879 28.782 30.835
C 38.395 28.982 32.238
C 37.754 27.813 28.739
H 38.31  28.491 28.111
H 38.205 26.759 28.58 
H 36.759 27.77  28.329
C 40.188 29.147 30.361
H 40.33  29.206 29.291
C 41.346 29.372 31.036
H 41.444 29.28  32.134
H 42.268 29.575 30.498
N 37.404 29.518 35.173
C 38.674 29.806 34.655
C 39.551 30.205 35.795
C 38.759 30.348 36.886
C 37.467 29.879 36.473
C 40.986 30.633 35.707
H 41.079 31.677 35.487
H 41.545 30.426 36.587
H 41.443 29.962 35.025
C 39.222 30.83  38.197
H 38.761 30.291 38.991
H 40.309 30.854 38.37 
C 38.762 32.303 38.335
H 38.71  32.595 39.437
H 39.573 32.858 37.89 
H 37.884 32.553 37.769
N 34.724 29.01  35.701
C 35.055 29.449 36.993
C 33.948 29.226 37.858
C 32.978 28.623 37.037
C 33.48  28.57  35.745
C 33.824 29.463 39.268
H 34.268 28.711 39.878
H 34.106 30.434 39.487
H 32.729 29.452 39.467
C 31.61  28.059 37.13 
O 30.723 28.016 37.956
C 31.412 27.524 35.688
H 30.526 28.02  35.291
C 31.047 26.046 35.775
O 31.824 25.192 36.034
O 29.744 25.753 35.443
C 29.44  24.324 35.185
H 30.053 23.944 34.361
H 29.634 23.768 36.08 
H 28.355 24.359 34.975
C 26.109 26.887 31.041
H 25.829 26.856 32.08 
H 25.998 25.891 30.565
C 25.455 27.97  30.264
H 25.744 27.894 29.214
C 24.61  28.961 30.735
C 24.197 29.095 32.176
H 23.132 29.173 32.034
H 24.431 28.152 32.706
H 24.71  29.897 32.702
C 24.066 29.929 29.739
H 24.691 30.002 28.902
H 24.159 30.929 30.115
C 22.598 29.828 29.328
H 22.063 30.716 29.249
H 22.099 29.21  30.108
C 22.465 28.996 28.041
H 21.903 28.079 28.41 
H 23.416 28.642 27.631
C 21.426 29.602 26.991
H 20.712 30.113 27.607
C 20.676 28.506 26.208
H 19.882 29.02  25.64 
H 21.431 28.07  25.52 
H 20.207 27.742 26.861
C 21.997 30.609 25.976
H 21.057 30.906 25.445
H 22.727 30.198 25.278
C 22.6   31.869 26.495
H 23.622 31.982 26.216
H 22.632 31.806 27.592
C 22.028 33.229 26.099
H 21.478 33.256 25.103
H 22.976 33.771 25.845
C 21.278 34.078 27.168
H 21.865 34.004 28.091
C 19.882 33.458 27.372
H 19.417 33.253 26.405
H 20.023 32.554 28.018
H 19.146 34.082 27.864
C 21.175 35.642 26.825
H 20.496 36.138 27.588
H 20.746 35.567 25.87 
C 22.485 36.44  26.761
H 22.888 36.506 25.738
H 23.183 35.927 27.436
C 22.316 37.828 27.361
H 23.055 38.012 28.16 
H 21.376 38.004 27.893
C 22.603 39.009 26.421
H 22.15  38.854 25.419
C 24.149 39.178 26.186
H 24.628 39.703 27.044
H 24.743 38.189 25.994
H 24.262 39.787 25.277
C 22.023 40.392 26.75 
H 22.444 41.244 26.172
H 20.901 40.247 26.6  
H 22.151 40.594 27.828
