137

Mg 22.338 23.787 40.813
C 20.5   20.912 41.23 
C 22.451 23.116 37.33 
H 22.524 22.905 36.279
C 23.926 26.617 40.366
H 24.461 27.558 40.21 
C 22.176 24.412 44.266
H 22.209 24.511 45.302
N 21.5   22.298 39.452
C 20.699 21.186 39.876
C 20.243 20.384 38.68 
H 20.524 19.3   38.865
C 21.145 20.846 37.507
H 20.527 21.039 36.612
C 21.716 22.197 38.148
C 22.302 19.909 37.184
H 22.65  19.487 38.13 
H 21.866 19.153 36.604
H 22.984 20.355 36.573
C 18.754 20.386 38.392
H 18.417 21.35  38.032
H 18.181 20.144 39.331
C 18.336 19.246 37.472
H 19.144 18.58  37.365
H 17.598 18.805 38.075
C 17.707 19.613 36.129
O 17.83  20.688 35.578
O 17.004 18.566 35.538
N 23.077 24.768 39.116
C 23.001 24.318 37.799
C 23.653 25.343 36.952
C 24.105 26.383 37.812
C 23.701 25.986 39.125
C 23.652 25.271 35.514
H 24.589 25.59  34.985
H 23.366 24.291 35.076
H 22.872 25.964 35.215
C 24.907 27.548 37.474
H 25.663 27.894 38.22 
C 24.792 28.27  36.319
H 24.23  27.811 35.429
H 25.347 29.245 36.222
N 22.958 25.236 42.058
C 23.552 26.329 41.639
C 23.706 27.255 42.687
C 23.214 26.619 43.846
C 22.723 25.377 43.43 
C 24.398 28.625 42.618
H 25.293 28.623 41.933
H 23.65  29.359 42.132
H 24.758 28.995 43.604
C 23.221 27.249 45.193
H 23.204 26.441 45.897
H 24.099 27.908 45.275
C 22.069 28.218 45.415
H 22.166 28.856 46.26 
H 21.772 28.797 44.516
H 21.176 27.632 45.613
N 21.577 22.841 42.416
C 21.622 23.185 43.761
C 20.983 22.169 44.492
C 20.463 21.216 43.557
C 20.893 21.705 42.289
C 20.667 22.194 45.99 
H 20.855 21.248 46.514
H 21.215 22.864 46.682
H 19.593 22.329 46.13 
C 19.692 20.01  43.376
O 19.136 19.341 44.241
C 19.783 19.716 41.853
H 18.724 19.565 41.47 
C 20.432 18.401 41.727
O 21.479 18.083 42.298
O 19.679 17.488 40.949
C 20.258 16.114 40.941
H 19.599 15.357 40.56 
H 21.167 16.264 40.294
H 20.607 15.672 41.897
C 16.305 18.956 34.338
H 16.948 19.32  33.536
H 15.66  19.773 34.595
C 15.534 17.784 33.82 
H 14.91  17.348 34.595
C 15.57  17.146 32.596
C 16.251 17.785 31.397
H 17.093 17.19  31.088
H 15.571 17.692 30.589
H 16.384 18.818 31.495
C 14.766 15.893 32.325
H 14.685 15.361 33.307
H 15.273 15.171 31.665
C 13.292 16.069 31.916
H 13.    17.056 32.279
H 12.722 15.275 32.297
C 13.179 16.231 30.401
H 14.125 15.932 29.918
H 13.201 17.317 30.282
C 12.219 15.294 29.562
H 12.731 14.316 29.396
C 11.92  16.02  28.219
H 11.132 15.486 27.723
H 11.558 17.027 28.325
H 12.744 16.009 27.503
C 10.783 14.887 30.086
H 10.862 14.342 30.992
H 10.417 14.084 29.448
C  9.67  15.913 30.403
H 10.123 16.971 30.37 
H  9.239 15.715 31.432
C  8.395 15.911 29.431
H  7.694 15.265 29.867
H  8.611 15.428 28.462
C  7.857 17.377 29.093
H  8.691 17.928 28.761
C  7.432 18.181 30.357
H  6.525 17.669 30.757
H  8.216 18.127 31.031
H  7.238 19.213 30.008
C  6.724 17.382 28.065
H  5.935 17.024 28.671
H  6.809 16.676 27.252
C  6.181 18.673 27.407
H  6.722 19.545 27.804
H  5.235 18.775 27.849
C  5.851 18.627 25.85 
H  4.752 18.5   25.765
H  6.326 17.797 25.382
C  6.508 19.783 24.975
H  6.495 20.658 25.69 
C  5.714 20.183 23.783
H  5.429 19.257 23.315
H  4.851 20.767 24.031
H  6.288 20.854 23.149
C  7.973 19.396 24.615
H  8.464 20.363 24.425
H  8.464 18.79  25.377
H  8.002 18.776 23.777
