137

Mg 32.51  31.071 37.086
C 30.839 28.535 35.435
C 35.029 30.805 34.773
H 35.81  30.758 34.016
C 34.225 33.219 38.892
H 34.715 34.004 39.455
C 30.156 30.73  39.737
H 29.496 30.6   40.556
N 32.839 29.894 35.294
C 32.014 28.871 34.799
C 32.443 28.433 33.393
H 32.372 27.38  33.33 
C 34.    28.938 33.373
H 34.195 29.421 32.403
C 33.986 29.952 34.533
C 35.074 27.784 33.676
H 34.894 27.234 34.66 
H 35.218 27.03  32.871
H 36.011 28.228 33.611
C 31.607 29.126 32.254
H 31.754 30.249 32.342
H 30.575 28.873 32.482
C 31.969 28.77  30.81 
H 32.632 29.487 30.398
H 32.506 27.866 30.756
C 30.835 28.531 29.865
O 30.726 29.075 28.781
O 30.011 27.527 30.322
N 34.204 31.971 36.712
C 35.11  31.803 35.731
C 36.167 32.812 35.883
C 36.064 33.375 37.139
C 34.793 32.821 37.617
C 37.211 32.969 34.824
H 37.976 32.35  35.092
H 36.866 32.873 33.817
H 37.465 34.045 34.909
C 36.981 34.255 37.899
H 36.611 34.894 38.69 
C 38.316 34.319 37.708
H 38.839 33.804 36.912
H 38.888 35.005 38.38 
N 32.293 31.789 39.042
C 33.089 32.748 39.575
C 32.542 33.158 40.88 
C 31.466 32.321 41.133
C 31.29  31.531 39.963
C 33.062 34.233 41.771
H 32.413 35.122 41.752
H 33.141 33.826 42.784
H 34.071 34.412 41.414
C 30.486 32.406 42.353
H 30.212 31.422 42.618
H 30.987 32.944 43.175
C 29.322 33.269 42.008
H 28.516 33.13  42.656
H 29.521 34.343 42.086
H 28.935 33.132 40.941
N 30.836 29.939 37.564
C 29.963 29.934 38.611
C 28.855 29.069 38.377
C 29.161 28.461 37.133
C 30.349 29.049 36.691
C 27.737 28.903 39.318
H 27.968 29.317 40.278
H 26.823 29.359 38.929
H 27.529 27.864 39.567
C 28.773 27.411 36.147
O 27.824 26.634 36.147
C 29.811 27.537 34.939
H 29.425 27.983 34.013
C 30.281 26.162 34.66 
O 31.349 25.683 35.084
O 29.502 25.485 33.773
C 30.029 24.202 33.245
H 31.083 24.232 33.1  
H 29.731 23.367 33.89 
H 29.692 24.013 32.275
C 28.918 27.133 29.402
H 29.321 26.936 28.414
H 28.138 27.97  29.316
C 28.044 26.049 30.009
H 27.42  26.318 30.87 
C 27.872 24.773 29.637
C 28.695 24.082 28.578
H 27.996 23.872 27.822
H 29.477 24.599 28.198
H 29.13  23.178 28.914
C 26.787 23.914 30.357
H 26.459 24.456 31.278
H 27.347 23.041 30.663
C 25.61  23.39  29.488
H 25.861 22.403 29.25 
H 25.625 23.945 28.601
C 24.231 23.694 30.155
H 23.82  24.592 29.8  
H 24.423 24.021 31.174
C 23.137 22.603 30.183
H 23.51  21.572 30.225
C 22.405 22.65  28.852
H 23.023 22.257 28.013
H 21.549 22.107 28.914
H 22.192 23.629 28.587
C 22.093 22.721 31.395
H 22.475 22.347 32.354
H 21.213 22.073 31.208
C 21.397 24.039 31.582
H 20.288 23.989 31.716
H 21.441 24.517 30.589
C 22.03  24.888 32.799
H 22.398 25.85  32.483
H 22.856 24.404 33.351
C 20.998 25.207 33.947
H 19.896 25.14  33.693
C 21.373 26.424 34.857
H 21.407 27.327 34.234
H 20.502 26.735 35.488
H 22.326 26.274 35.398
C 21.12  23.964 34.872
H 22.11  24.037 35.41 
H 20.91  23.125 34.264
C 20.075 23.797 36.042
H 19.437 22.897 35.899
H 19.437 24.607 35.917
C 20.661 23.806 37.467
H 20.058 24.606 37.902
H 21.708 24.069 37.468
C 20.634 22.44  38.218
H 20.991 21.555 37.741
C 19.197 22.152 38.624
H 19.244 21.341 39.377
H 18.699 22.979 39.162
H 18.679 21.892 37.742
C 21.402 22.626 39.558
H 21.253 21.757 40.073
H 22.468 22.577 39.339
H 21.219 23.461 40.226
