137

Mg 35.279 28.897 33.925
C 32.135 27.638 33.816
C 35.98  27.503 30.944
H 36.181 27.07  29.963
C 38.325 30.438 33.949
H 39.362 30.843 34.014
C 34.596 30.214 37.103
H 34.165 30.67  38.023
N 34.196 27.832 32.517
C 32.88  27.37  32.667
C 32.372 26.537 31.545
H 31.962 25.658 31.99 
C 33.716 26.268 30.811
H 33.544 26.417 29.756
C 34.696 27.311 31.416
C 34.225 24.779 30.99 
H 35.105 24.714 30.458
H 34.524 24.546 32.033
H 33.492 24.044 30.646
C 31.306 27.353 30.707
H 31.829 28.283 30.369
H 30.54  27.661 31.45 
C 30.673 26.463 29.523
H 30.955 26.989 28.545
H 31.117 25.509 29.372
C 29.186 26.326 29.692
O 28.594 25.446 30.274
O 28.566 27.265 28.972
N 36.962 28.914 32.684
C 37.049 28.318 31.44 
C 38.38  28.505 30.872
C 39.08  29.293 31.807
C 38.148 29.584 32.869
C 38.883 27.947 29.573
H 39.381 28.753 28.987
H 39.67 27.16 29.74
H 38.132 27.399 28.973
C 40.465 29.845 31.7  
H 40.769 29.936 30.648
C 41.347 30.298 32.7  
H 41.247 30.171 33.842
H 42.293 30.84  32.296
N 36.303 30.061 35.325
C 37.537 30.643 35.096
C 37.87  31.505 36.212
C 36.789 31.402 37.12 
C 35.826 30.523 36.568
C 39.009 32.459 36.271
H 38.996 33.006 37.197
H 39.938 31.813 36.306
H 39.003 33.109 35.444
C 36.523 32.312 38.389
H 35.837 31.846 39.121
H 37.501 32.594 38.841
C 35.875 33.634 37.914
H 35.819 34.317 38.745
H 36.464 34.116 37.111
H 34.865 33.468 37.492
N 33.777 28.813 35.273
C 33.599 29.345 36.497
C 32.292 28.97  37.043
C 31.68  28.299 35.992
C 32.602 28.304 34.953
C 31.685 29.353 38.35 
H 31.967 28.55  39.041
H 32.039 30.31  38.664
H 30.598 29.235 38.194
C 30.466 27.79  35.638
O 29.374 27.698 36.259
C 30.674 27.323 34.231
H 30.028 27.776 33.541
C 30.52  25.849 34.219
O 31.037 25.015 34.971
O 29.785 25.449 33.166
C 29.659 24.019 32.968
H 29.065 23.803 32.092
H 30.7   23.623 32.772
H 29.209 23.456 33.811
C 27.071 27.28  28.929
H 26.886 27.565 29.924
H 26.587 26.357 28.447
C 26.687 28.443 28.095
H 27.517 28.682 27.404
C 25.683 29.305 28.229
C 24.631 29.366 29.345
H 24.483 30.438 29.694
H 23.683 28.983 28.931
H 24.873 28.889 30.299
C 25.46  30.341 27.164
H 26.347 30.393 26.535
H 25.285 31.298 27.562
C 24.402 29.844 26.157
H 24.308 28.753 26.19 
H 24.868 30.121 25.135
C 23.074 30.613 26.231
H 23.144 31.437 25.536
H 22.954 30.986 27.212
C 21.795 29.722 26.002
H 21.833 28.806 26.551
C 21.81  29.169 24.555
H 22.414 28.304 24.518
H 20.762 29.03  24.434
H 22.128 29.942 23.837
C 20.477 30.476 26.275
H 19.698 29.788 26.046
H 20.43  31.273 25.497
C 20.208 30.913 27.704
H 20.992 30.389 28.333
H 19.245 30.587 28.075
C 20.214 32.469 27.934
H 19.159 32.772 28.195
H 20.527 33.077 27.034
C 20.937 32.958 29.25 
H 21.987 32.829 29.031
C 20.551 32.31  30.602
H 20.921 31.272 30.806
H 21.042 32.889 31.38 
H 19.508 32.408 30.802
C 20.776 34.475 29.373
H 21.051 34.801 30.316
H 19.756 34.799 29.198
C 21.704 35.244 28.404
H 21.094 35.579 27.562
H 22.418 34.56  27.895
C 22.465 36.477 28.964
H 22.081 36.945 29.886
H 22.203 37.255 28.277
C 24.024 36.326 29.029
H 24.374 36.309 27.994
C 24.415 35.047 29.932
H 25.446 34.838 29.714
H 24.267 35.193 30.99 
H 23.788 34.192 29.654
C 24.635 37.602 29.721
H 25.731 37.433 29.864
H 24.693 38.408 29.023
H 24.209 37.868 30.728
