137

Mg 27.6   26.166 44.003
C 24.224 25.491 43.885
C 27.761 25.884 40.72 
H 27.931 25.919 39.597
C 30.892 26.989 44.12 
H 31.967 27.113 44.102
C 27.293 26.764 47.391
H 27.22  26.951 48.476
N 26.103 25.716 42.471
C 24.781 25.403 42.612
C 24.09  25.1   41.243
H 23.727 24.142 41.225
C 25.299 25.149 40.245
H 25.184 25.893 39.472
C 26.473 25.631 41.21 
C 25.74  23.827 39.586
H 26.627 23.987 38.925
H 26.064 23.112 40.334
H 24.967 23.386 38.98 
C 22.945 26.003 40.941
H 23.132 27.112 40.913
H 22.138 25.786 41.626
C 22.206 25.841 39.538
H 22.712 25.17  38.862
H 21.211 25.497 39.784
C 22.027 27.116 38.73 
O 22.783 28.091 38.552
O 20.805 26.981 38.046
N 29.1   26.315 42.624
C 28.976 26.165 41.303
C 30.252 26.472 40.622
C 31.16  26.81  41.632
C 30.399 26.778 42.811
C 30.521 26.51  39.083
H 30.254 25.497 38.757
H 29.866 27.213 38.523
H 31.575 26.718 38.847
C 32.6   27.192 41.607
H 32.822 28.14  42.   
C 33.546 26.51  40.97 
H 33.278 25.635 40.326
H 34.596 26.845 40.989
N 28.894 26.778 45.499
C 30.232 26.999 45.373
C 30.811 27.247 46.661
C 29.722 27.313 47.576
C 28.58  26.96  46.833
C 32.273 27.438 46.963
H 32.851 27.049 46.106
H 32.521 28.511 47.092
H 32.611 27.003 47.903
C 29.828 27.478 49.03 
H 29.319 26.574 49.396
H 30.801 27.43  49.383
C 29.061 28.689 49.637
H 29.481 29.632 49.203
H 27.972 28.749 49.427
H 29.299 28.647 50.69 
N 26.175 26.008 45.41 
C 26.155 26.392 46.744
C 24.815 26.347 47.269
C 24.044 25.902 46.272
C 24.935 25.741 45.078
C 24.299 26.821 48.586
H 23.251 27.104 48.597
H 24.537 26.17  49.353
H 24.859 27.721 48.732
C 22.682 25.552 45.876
O 21.585 25.673 46.482
C 22.801 25.23  44.356
H 22.008 25.723 43.849
C 22.396 23.815 44.169
O 22.603 22.941 45.042
O 21.743 23.648 42.909
C 21.273 22.237 42.677
H 20.779 22.18  41.702
H 22.046 21.466 42.746
H 20.449 21.93  43.372
C 20.374 28.297 37.528
H 20.987 28.574 36.689
H 20.465 29.102 38.314
C 19.004 28.116 36.845
H 18.898 27.229 36.211
C 17.842 28.723 37.066
C 17.595 29.782 38.093
H 16.794 29.611 38.82 
H 18.495 29.872 38.721
H 17.352 30.686 37.621
C 16.584 28.173 36.5  
H 16.732 27.985 35.473
H 15.876 28.962 36.583
C 16.104 27.004 37.246
H 15.237 27.341 37.851
H 16.809 26.785 37.996
C 15.855 25.677 36.471
H 16.589 24.96  36.958
H 16.214 25.833 35.416
C 14.363 25.101 36.427
H 14.057 25.235 37.494
C 14.225 23.607 36.006
H 13.204 23.259 35.983
H 14.691 23.583 35.005
H 14.681 22.863 36.67 
C 13.491 26.033 35.628
H 13.408 27.058 36.119
H 12.531 25.495 35.705
C 13.847 26.376 34.159
H 14.885 26.241 34.003
H 13.796 27.435 33.955
C 12.982 25.695 33.079
H 12.506 26.553 32.527
H 12.217 25.106 33.577
C 13.749 24.906 31.911
H 14.289 24.132 32.376
C 14.581 25.901 31.081
H 13.98  26.75  30.802
H 15.378 26.331 31.616
H 15.046 25.338 30.257
C 12.734 24.231 30.964
H 12.225 25.088 30.475
H 11.968 23.732 31.566
C 13.195 23.241 29.905
H 12.584 22.364 30.006
H 14.282 23.1   30.079
C 13.116 23.901 28.446
H 14.067 23.546 28.054
H 13.339 25.029 28.404
C 11.885 23.433 27.572
H 11.042 23.135 28.24 
C 12.292 22.159 26.768
H 12.483 21.403 27.564
H 11.411 21.754 26.235
H 13.087 22.255 26.105
C 11.445 24.494 26.557
H 10.573 24.094 26.06 
H 11.028 25.372 27.049
H 12.242 24.852 25.854
