137

Mg 35.061 29.637 33.001
C 31.898 28.358 32.453
C 36.062 28.236 30.177
H 36.297 27.754 29.198
C 38.119 30.901 33.529
H 39.129 31.35  33.7  
C 33.894 31.203 35.844
H 33.558 31.6   36.712
N 34.082 28.553 31.428
C 32.802 28.146 31.376
C 32.477 27.572 29.98 
H 31.802 26.658 29.993
C 33.906 27.249 29.405
H 33.907 27.56  28.347
C 34.742 28.069 30.375
C 34.236 25.703 29.47 
H 35.253 25.732 29.307
H 34.073 25.45  30.439
H 33.681 25.138 28.744
C 31.769 28.603 29.17 
H 32.441 29.458 28.95 
H 30.973 28.94  29.793
C 31.228 28.008 27.844
H 31.474 28.643 27.035
H 31.649 27.009 27.721
C 29.692 27.908 27.83 
O 29.093 26.879 28.063
O 29.097 29.082 27.496
N 36.862 29.492 32.067
C 37.046 28.824 30.929
C 38.513 28.696 30.7  
C 39.083 29.623 31.533
C 38.015 30.082 32.422
C 39.231 27.952 29.595
H 40.197 27.635 29.995
H 38.732 27.09  29.262
H 39.271 28.536 28.697
C 40.564 30.002 31.584
H 41.092 30.198 30.73 
C 41.338 29.897 32.648
H 40.799 29.641 33.552
H 42.394 30.165 32.765
N 35.83 30.94 34.38
C 37.135 31.269 34.437
C 37.452 32.125 35.627
C 36.177 32.279 36.24 
C 35.282 31.453 35.499
C 38.856 32.553 36.044
H 39.264 33.376 35.483
H 38.774 32.893 37.09 
H 39.62  31.776 35.881
C 35.905 33.102 37.445
H 35.849 32.387 38.229
H 36.689 33.81  37.699
C 34.673 33.935 37.269
H 34.769 34.965 37.656
H 34.53  34.054 36.15 
H 33.926 33.281 37.693
N 33.284 29.7   33.994
C 32.966 30.35  35.218
C 31.558 29.934 35.615
C 31.152 29.141 34.501
C 32.203 29.072 33.585
C 30.714 30.312 36.729
H 30.147 31.189 36.471
H 30.04  29.505 36.898
H 31.378 30.618 37.588
C 30.016 28.392 33.979
O 28.914 28.191 34.415
C 30.544 27.768 32.638
H 29.971 27.853 31.711
C 30.592 26.285 32.867
O 31.085 25.759 33.843
O 30.28  25.609 31.717
C 30.511 24.139 31.81 
H 30.68  23.637 30.83 
H 31.416 23.915 32.419
H 29.686 23.644 32.333
C 27.646 29.088 27.561
H 27.217 28.792 28.525
H 27.206 28.455 26.807
C 27.226 30.47  27.131
H 27.657 30.8   26.182
C 26.457 31.251 27.912
C 25.777 30.901 29.19 
H 24.91  30.288 28.971
H 26.45  30.392 29.846
H 25.422 31.786 29.773
C 26.234 32.649 27.523
H 27.043 32.917 26.986
H 26.196 33.262 28.391
C 25.014 32.852 26.613
H 24.745 31.961 26.122
H 25.366 33.568 25.809
C 23.805 33.493 27.352
H 23.398 34.43  26.964
H 23.992 33.831 28.379
C 22.625 32.48  27.444
H 22.873 31.456 27.808
C 21.899 32.343 26.1  
H 21.065 31.579 26.212
H 21.553 33.329 25.858
H 22.532 31.916 25.332
C 21.57  32.986 28.499
H 20.684 32.306 28.466
H 21.2   33.971 28.187
C 22.043 32.978 29.991
H 23.041 32.652 30.029
H 21.471 32.253 30.542
C 22.003 34.421 30.552
H 21.253 34.948 30.022
H 23.006 34.859 30.37 
C 21.691 34.563 32.112
H 22.181 33.71  32.593
C 20.177 34.413 32.407
H 19.946 33.455 32.051
H 19.948 34.566 33.446
H 19.544 35.026 31.743
C 22.123 35.962 32.753
H 21.797 35.986 33.806
H 21.612 36.767 32.227
C 23.671 36.275 32.663
H 23.773 37.315 32.285
H 24.22  35.631 31.999
C 24.378 36.122 34.104
H 23.649 35.971 34.873
H 24.829 37.051 34.338
C 25.545 35.08  34.141
H 26.278 35.402 33.444
C 25.117 33.597 33.899
H 25.943 33.024 34.396
H 24.136 33.374 34.454
H 25.032 33.32  32.859
C 26.256 35.217 35.425
H 27.224 34.681 35.384
H 26.557 36.233 35.673
H 25.648 34.966 36.283
