137

Mg 27.927 32.44  38.458
C 25.297 30.705 39.861
C 25.486 34.505 36.976
H 24.774 35.19  36.568
C 30.375 34.245 37.161
H 31.159 34.96  36.791
C 30.085 30.194 39.843
H 30.8   29.468 40.214
N 25.655 32.556 38.461
C 24.811 31.768 39.173
C 23.47  32.42  39.135
H 22.785 31.642 38.885
C 23.502 33.559 38.11 
H 23.179 34.542 38.398
C 24.988 33.58  37.835
C 22.667 33.274 36.91 
H 21.656 33.077 37.219
H 22.654 34.022 36.207
H 23.019 32.337 36.488
C 23.057 32.903 40.525
H 23.565 33.879 40.753
H 23.225 32.08  41.255
C 21.444 33.072 40.548
H 20.876 32.603 39.73 
H 21.125 32.53  41.344
C 21.042 34.56  40.768
O 21.187 35.211 41.768
O 20.61  35.128 39.618
N 27.931 34.009 37.254
C 26.851 34.753 36.748
C 27.448 35.808 35.887
C 28.813 35.65  35.782
C 29.065 34.589 36.731
C 26.507 36.798 35.138
H 25.897 36.204 34.483
H 25.913 37.444 35.877
H 27.339 37.419 34.753
C 29.713 36.412 34.956
H 29.43  37.469 34.699
C 30.918 35.91  34.511
H 31.205 34.969 34.737
H 31.695 36.535 34.05 
N 29.856 32.315 38.62 
C 30.739 33.114 38.011
C 32.09  32.775 38.507
C 32.003 31.651 39.299
C 30.598 31.345 39.28 
C 33.299 33.592 38.127
H 34.134 33.452 38.865
H 33.476 33.134 37.227
H 33.142 34.719 38.07 
C 33.182 30.823 39.889
H 32.969 29.732 39.95 
H 34.116 31.049 39.336
C 33.351 30.968 41.41 
H 33.689 31.94  41.651
H 32.409 30.917 41.936
H 34.136 30.182 41.631
N 27.858 30.726 39.522
C 28.789 29.878 40.068
C 28.143 28.768 40.729
C 26.76  29.049 40.694
C 26.624 30.236 39.906
C 28.809 27.597 41.29 
H 28.124 26.814 41.158
H 29.734 27.307 40.837
H 29.003 27.784 42.318
C 25.501 28.674 41.253
O 25.184 27.805 41.981
C 24.552 29.693 40.739
H 24.141 30.272 41.568
C 23.482 29.01  40.029
O 23.596 28.098 39.233
O 22.299 29.563 40.32 
C 21.197 29.305 39.407
H 21.114 28.243 39.22 
H 20.306 29.712 39.827
H 21.451 29.836 38.52 
C 20.284 36.548 39.539
H 21.179 37.174 39.556
H 19.681 36.981 40.322
C 19.6   36.69  38.246
H 18.539 36.479 38.152
C 20.188 36.976 37.071
C 21.679 37.227 36.859
H 21.807 38.274 36.586
H 22.316 37.055 37.731
H 22.1   36.616 36.043
C 19.417 37.093 35.808
H 18.733 36.243 35.607
H 20.099 37.115 34.998
C 18.582 38.374 35.857
H 18.83  38.943 34.966
H 18.758 39.046 36.728
C 17.145 38.123 35.762
H 16.636 38.689 36.608
H 16.882 37.094 35.955
C 16.478 38.581 34.429
H 16.722 39.644 34.24 
C 14.927 38.591 34.662
H 14.705 39.161 35.558
H 14.405 39.185 33.907
H 14.43  37.599 34.756
C 16.992 37.792 33.191
H 18.057 37.877 33.129
H 16.616 38.323 32.367
C 16.505 36.316 32.958
H 15.431 36.339 32.863
H 16.61  35.703 33.812
C 17.278 35.673 31.807
H 17.84  34.848 32.303
H 17.954 36.353 31.382
C 16.396 35.131 30.667
H 15.62  34.528 31.205
C 17.331 34.339 29.782
H 16.797 33.816 29.003
H 18.084 34.924 29.243
H 17.856 33.573 30.421
C 15.683 36.351 29.859
H 16.449 36.765 29.213
H 15.331 37.07  30.612
C 14.461 35.851 29.063
H 13.584 36.464 29.196
H 14.247 34.799 29.31 
C 14.687 35.904 27.524
H 15.757 35.919 27.426
H 14.254 36.771 27.106
C 14.091 34.704 26.724
H 14.405 33.777 27.059
C 14.505 34.829 25.23 
H 13.931 34.109 24.645
H 14.268 35.847 24.967
H 15.598 34.528 25.311
C 12.521 34.69  26.743
H 12.125 35.6   26.383
H 12.117 33.883 26.137
H 12.186 34.518 27.75 
