137

Mg 19.839 26.447 29.427
C 22.908 24.799 30.   
C 20.631 28.497 31.987
H 20.957 29.106 32.822
C 17.267 28.497 28.554
H 16.394 29.054 28.346
C 19.101 24.266 26.883
H 18.933 23.57  26.019
N 21.574 26.567 30.814
C 22.733 25.86  30.876
C 23.635 26.35  31.939
H 23.889 25.621 32.703
C 22.817 27.409 32.661
H 23.24  28.388 32.765
C 21.628 27.56  31.732
C 22.383 27.033 34.119
H 23.308 26.851 34.729
H 21.934 27.955 34.502
H 21.742 26.157 34.127
C 24.928 27.013 31.37 
H 24.689 27.908 30.905
H 25.392 26.324 30.751
C 26.099 27.236 32.312
H 25.702 26.979 33.273
H 26.89  26.577 32.117
C 26.641 28.573 32.66 
O 27.776 28.91  32.908
O 25.608 29.447 32.82 
N 18.935 28.091 30.219
C 19.455 28.829 31.261
C 18.553 29.943 31.67 
C 17.546 29.886 30.697
C 17.895 28.825 29.709
C 18.678 30.905 32.882
H 17.938 31.752 32.786
H 18.516 30.417 33.802
H 19.693 31.254 32.893
C 16.34  30.729 30.435
H 16.205 30.959 29.37 
C 15.454 31.217 31.329
H 15.535 30.971 32.406
H 14.619 31.93  31.044
N 18.539 26.523 27.826
C 17.527 27.459 27.647
C 16.75  27.057 26.5  
C 17.126 25.752 26.162
C 18.301 25.426 26.951
C 15.589 27.837 25.996
H 15.795 28.898 26.154
H 15.485 27.669 24.912
H 14.785 27.313 26.529
C 16.407 24.782 25.298
H 15.609 25.282 24.638
H 17.114 24.225 24.709
C 15.698 23.753 26.245
H 16.465 23.137 26.783
H 15.03  24.167 26.967
H 15.267 22.99  25.629
N 20.777 24.883 28.638
C 20.296 24.027 27.647
C 21.26  22.89  27.487
C 22.301 23.227 28.364
C 21.95  24.404 29.082
C 21.085 21.769 26.575
H 20.921 22.103 25.595
H 22.029 21.269 26.66 
H 20.276 21.099 26.755
C 23.575 22.742 28.874
O 24.169 21.711 28.636
C 24.123 23.832 29.826
H 25.029 24.295 29.377
C 24.553 23.301 31.192
O 23.743 22.807 31.955
O 25.958 23.234 31.38 
C 26.409 22.662 32.64 
H 25.917 23.105 33.445
H 26.35  21.502 32.752
H 27.435 22.941 32.682
C 25.963 30.847 33.268
H 26.686 31.329 32.636
H 26.295 30.851 34.285
C 24.658 31.631 33.377
H 24.04  31.223 34.154
C 24.225 32.719 32.705
C 25.045 33.423 31.654
H 25.092 34.422 31.857
H 26.058 33.124 31.604
H 24.489 33.5   30.627
C 22.815 33.314 32.696
H 22.12  32.662 33.154
H 22.419 33.196 31.647
C 22.564 34.681 33.224
H 23.563 35.01  33.493
H 22.006 34.543 34.09 
C 22.083 35.759 32.26 
H 22.541 35.587 31.243
H 22.511 36.629 32.743
C 20.523 36.071 32.28 
H 20.17  36.078 33.354
C 19.774 34.879 31.618
H 19.775 33.937 32.212
H 18.695 35.041 31.435
H 20.378 34.542 30.692
C 20.183 37.451 31.563
H 19.118 37.539 31.428
H 20.682 37.374 30.591
C 20.783 38.695 32.208
H 21.602 39.073 31.645
H 21.325 38.392 33.139
C 19.784 39.887 32.323
H 19.521 39.811 33.334
H 18.844 39.658 31.743
C 20.248 41.24  31.958
H 20.546 41.204 30.906
C 21.504 41.695 32.78 
H 21.21  41.837 33.896
H 22.255 40.856 32.635
H 22.    42.631 32.525
C 19.015 42.22  31.951
H 18.749 42.477 32.984
H 18.177 41.76  31.533
C 19.267 43.482 31.059
H 18.62  43.295 30.13 
H 20.261 43.468 30.599
C 19.15  44.871 31.684
H 19.067 44.726 32.805
H 18.206 45.284 31.501
C 20.179 45.943 31.224
H 21.219 45.669 31.103
C 20.157 47.238 32.182
H 20.742 48.016 31.843
H 19.19  47.643 32.166
H 20.516 46.864 33.178
C 19.806 46.389 29.751
H 18.822 46.857 29.779
H 20.581 47.028 29.369
H 19.746 45.534 29.081
