137

Mg 35.929 33.502 36.712
C 32.634 34.008 36.018
C 35.901 30.921 34.458
H 35.983 29.994 33.79 
C 39.181 33.249 37.193
H 40.236 33.112 37.385
C 35.755 36.306 38.793
H 35.649 37.191 39.391
N 34.536 32.668 35.373
C 33.264 33.171 35.17 
C 32.62  32.447 33.993
H 31.718 32.034 34.373
C 33.526 31.182 33.753
H 33.843 30.991 32.723
C 34.714 31.543 34.622
C 32.902 29.75  34.005
H 31.996 29.64  33.38 
H 33.704 29.046 33.844
H 32.61  29.7   35.026
C 32.171 33.228 32.715
H 33.097 33.431 32.071
H 31.791 34.173 33.026
C 31.049 32.533 31.876
H 31.461 32.405 30.804
H 30.794 31.542 32.306
C 29.755 33.333 31.765
O 29.29  33.919 30.76 
O 29.22  33.572 33.037
N 37.328 32.336 35.917
C 37.153 31.285 35.048
C 38.518 30.622 34.851
C 39.414 31.297 35.637
C 38.634 32.316 36.365
C 38.709 29.478 33.927
H 37.777 29.174 33.544
H 39.287 29.773 32.926
H 39.277 28.659 34.42 
C 40.925 31.163 35.747
H 41.485 32.02  36.086
C 41.528 29.926 35.822
H 40.894 29.018 35.82 
H 42.583 29.86  36.072
N 37.308 34.636 37.786
C 38.581 34.336 37.898
C 39.221 35.35  38.8  
C 38.22  36.196 39.276
C 37.015 35.759 38.636
C 40.694 35.487 39.209
H 41.023 36.487 39.27 
H 40.662 35.318 40.285
H 41.397 34.718 38.731
C 38.381 37.426 40.189
H 37.525 37.461 40.877
H 39.288 37.358 40.816
C 38.299 38.781 39.456
H 37.312 38.792 38.963
H 38.482 39.586 40.207
H 39.174 38.871 38.766
N 34.448 34.719 37.565
C 34.51  35.842 38.31 
C 33.157 36.248 38.682
C 32.359 35.554 37.773
C 33.213 34.645 37.145
C 32.761 37.448 39.42 
H 33.015 37.264 40.434
H 33.225 38.326 39.054
H 31.639 37.563 39.369
C 31.059 35.492 37.168
O 30.052 36.151 37.25 
C 31.212 34.23  36.186
H 30.78  34.527 35.283
C 30.341 33.258 36.86 
O 30.282 33.013 38.089
O 29.788 32.412 35.936
C 29.208 31.156 36.42 
H 28.309 31.41  37.025
H 28.853 30.513 35.58 
H 29.883 30.587 36.961
C 28.24  34.623 33.046
H 27.545 34.402 32.258
H 28.8   35.529 32.739
C 27.704 34.583 34.479
H 28.049 35.504 35.007
C 26.793 33.686 35.012
C 26.318 32.402 34.301
H 26.346 31.599 34.988
H 25.237 32.563 34.074
H 26.791 32.19  33.376
C 26.281 33.762 36.487
H 27.091 34.38  36.965
H 26.224 32.758 36.899
C 24.907 34.48  36.613
H 24.781 34.999 35.648
H 24.953 35.152 37.398
C 23.763 33.493 36.868
H 23.315 33.743 37.821
H 24.168 32.508 36.951
C 22.68  33.574 35.735
H 23.155 33.363 34.759
C 22.11  35.049 35.603
H 21.238 34.997 34.989
H 21.884 35.507 36.603
H 22.774 35.611 34.968
C 21.498 32.546 35.956
H 21.93  31.508 36.055
H 21.02  32.631 34.961
C 20.388 32.794 37.022
H 19.595 33.169 36.468
H 20.615 33.658 37.641
C 19.833 31.591 37.76 
H 20.354 30.75  37.376
H 18.757 31.493 37.565
C 20.128 31.494 39.28 
H 19.646 32.431 39.687
C 21.566 31.794 39.694
H 21.968 32.773 39.705
H 21.691 31.46  40.798
H 22.249 31.234 39.074
C 19.565 30.296 39.907
H 19.961 30.264 40.959
H 20.077 29.455 39.325
C 18.099 30.084 39.861
H 17.584 30.926 39.5  
H 17.785 29.973 40.936
C 17.714 28.781 39.068
H 18.614 28.192 38.882
H 17.325 29.109 38.099
C 16.501 27.935 39.714
H 15.743 28.645 40.189
C 16.905 26.994 40.812
H 16.048 26.417 41.187
H 17.689 26.312 40.505
H 17.318 27.578 41.617
C 15.84  27.089 38.552
H 15.366 26.19  38.877
H 15.116 27.785 38.158
H 16.643 26.828 37.807
