137

Mg 34.117 36.596 34.458
C 31.127 35.027 33.711
C 35.768 33.837 33.411
H 36.349 32.995 33.12 
C 37.071 38.    35.377
H 38.072 38.4   35.628
C 32.332 39.209 35.6  
H 31.715 40.105 35.804
N 33.47  34.698 33.618
C 32.202 34.245 33.317
C 32.21  32.836 32.621
H 31.657 32.145 33.305
C 33.709 32.384 32.833
H 34.196 32.085 31.841
C 34.369 33.717 33.359
C 34.    31.284 33.867
H 33.444 31.602 34.764
H 33.696 30.339 33.527
H 35.057 31.286 34.03 
C 31.659 32.847 31.271
H 32.111 33.624 30.628
H 30.589 33.064 31.336
C 31.9   31.538 30.529
H 32.455 31.904 29.694
H 32.437 30.814 31.038
C 30.669 30.985 29.841
O 30.748 30.543 28.679
O 29.477 30.981 30.551
N 36.156 36.025 34.329
C 36.642 34.827 33.889
C 38.09  34.861 33.882
C 38.483 36.019 34.579
C 37.195 36.719 34.828
C 38.934 33.607 33.515
H 39.034 32.893 34.303
H 38.521 33.086 32.604
H 39.869 34.125 33.23 
C 39.838 36.571 35.094
H 39.92  37.543 35.534
C 40.975 35.853 35.021
H 41.084 34.828 34.636
H 41.869 36.361 35.46 
N 34.67  38.244 35.541
C 35.958 38.74  35.779
C 35.975 40.015 36.292
C 34.591 40.358 36.27 
C 33.806 39.219 35.766
C 37.189 40.946 36.566
H 37.048 41.453 37.49 
H 38.103 40.365 36.522
H 37.204 41.659 35.753
C 34.026 41.673 36.554
H 33.028 41.697 36.85 
H 34.592 42.1   37.413
C 34.165 42.594 35.374
H 33.502 43.471 35.576
H 35.217 42.953 35.234
H 33.832 42.133 34.474
N 32.18  36.979 34.808
C 31.55  38.139 35.261
C 30.056 38.054 35.288
C 29.898 36.812 34.625
C 31.128 36.204 34.39 
C 29.099 39.011 35.691
H 28.045 38.622 35.684
H 29.269 39.387 36.688
H 29.171 39.88  34.977
C 28.795 35.964 34.134
O 27.593 36.17  34.108
C 29.589 34.79  33.48 
H 29.335 34.663 32.477
C 29.143 33.536 34.11 
O 28.781 33.47  35.259
O 29.125 32.466 33.27 
C 28.752 31.122 33.816
H 28.972 30.319 33.159
H 29.258 30.801 34.731
H 27.607 31.137 33.865
C 28.424 30.418 29.821
H 28.412 29.378 29.414
H 28.4   31.09  28.974
C 27.236 30.661 30.672
H 27.25  31.676 31.067
C 26.249 29.845 31.094
C 26.1   28.364 30.74 
H 25.381 28.262 29.925
H 27.072 27.998 30.49 
H 25.777 27.794 31.531
C 25.107 30.376 31.929
H 25.438 31.376 32.234
H 25.047 29.894 32.884
C 23.772 30.547 31.183
H 23.957 30.672 30.168
H 23.257 31.402 31.454
C 22.846 29.351 31.488
H 21.996 29.759 32.054
H 23.378 28.629 32.102
C 22.233 28.597 30.282
H 23.097 28.102 29.713
C 21.394 29.397 29.294
H 21.442 28.735 28.421
H 20.438 29.667 29.647
H 21.879 30.353 29.085
C 21.354 27.387 30.855
H 21.945 26.804 31.47 
H 21.036 26.691 30.02 
C 19.921 27.667 31.441
H 19.243 27.566 30.663
H 19.879 28.695 31.816
C 19.608 26.596 32.548
H 20.41  25.857 32.663
H 18.745 26.092 32.283
C 19.346 27.32  33.935
H 18.418 27.935 33.957
C 20.417 28.289 34.33 
H 20.518 28.532 35.36 
H 21.323 27.918 33.967
H 20.221 29.142 33.808
C 19.021 26.37  35.14 
H 18.908 27.087 35.894
H 19.849 25.669 35.325
C 17.717 25.538 34.924
H 17.946 24.604 34.415
H 16.991 26.049 34.282
C 17.001 25.21  36.216
H 16.348 26.024 36.478
H 17.798 25.171 36.936
C 16.353 23.831 36.317
H 17.235 23.121 36.076
C 15.162 23.693 35.4  
H 14.574 22.799 35.751
H 14.545 24.598 35.394
H 15.554 23.559 34.454
C 15.81  23.703 37.799
H 15.033 24.429 37.952
H 15.356 22.729 37.87 
H 16.592 23.84  38.466
