137

Mg 23.042 26.131 39.552
C 20.863 23.568 39.69 
C 23.841 25.25  36.335
H 24.099 24.845 35.367
C 25.177 28.765 39.463
H 25.837 29.674 39.361
C 22.31  26.909 42.861
H 22.382 26.825 43.928
N 22.296 24.634 38.139
C 21.414 23.696 38.415
C 21.167 22.738 37.214
H 21.335 21.721 37.436
C 22.35  23.138 36.231
H 21.962 23.442 35.29 
C 22.911 24.372 36.927
C 23.452 22.102 35.89 
H 23.987 21.88  36.798
H 23.013 21.166 35.548
H 24.216 22.342 35.144
C 19.712 22.804 36.709
H 19.496 23.821 36.459
H 19.154 22.526 37.572
C 19.448 21.948 35.385
H 20.349 21.32  35.174
H 18.736 21.182 35.593
C 19.132 22.757 34.117
O 19.448 23.891 33.848
O 18.259 22.075 33.341
N 24.302 26.868 38.066
C 24.478 26.442 36.789
C 25.43  27.374 36.102
C 25.741 28.396 37.062
C 25.019 28.07  38.276
C 25.86  27.238 34.739
H 25.448 28.057 34.138
H 26.959 27.256 34.69 
H 25.57  26.269 34.351
C 26.611 29.571 36.907
H 27.332 29.716 37.709
C 26.662 30.371 35.831
H 26.071 30.22  34.928
H 27.47  31.098 35.705
N 23.622 27.655 40.94 
C 24.572 28.578 40.688
C 24.696 29.54  41.784
C 23.886 29.027 42.856
C 23.183 27.835 42.236
C 25.62  30.819 41.746
H 24.925 31.476 41.133
H 25.714 31.215 42.721
H 26.535 30.637 41.293
C 23.774 29.629 44.233
H 24.159 28.896 44.952
H 24.47  30.487 44.291
C 22.289 29.827 44.476
H 21.845 29.978 43.522
H 21.938 28.91  44.926
H 22.084 30.654 45.177
N 21.876 25.428 41.008
C 21.686 25.777 42.291
C 20.927 24.793 43.013
C 20.561 23.926 41.968
C 21.171 24.352 40.794
C 20.494 24.656 44.372
H 21.127 24.019 44.955
H 20.582 25.63  44.803
H 19.433 24.356 44.443
C 19.903 22.689 41.663
O 19.129 21.993 42.351
C 19.979 22.435 40.204
H 18.977 22.482 39.804
C 20.573 21.112 40.045
O 21.589 20.752 40.55 
O 19.871 20.403 39.141
C 20.424 19.111 38.828
H 19.862 18.643 38.019
H 21.452 19.183 38.531
H 20.278 18.485 39.701
C 17.853 22.594 31.993
H 18.634 23.136 31.505
H 17.109 23.321 32.122
C 17.398 21.491 31.098
H 17.566 20.529 31.513
C 16.988 21.65  29.809
C 16.912 22.96  29.126
H 17.934 23.097 28.741
H 16.111 22.868 28.387
H 16.544 23.82  29.808
C 16.782 20.381 28.947
H 17.146 19.531 29.477
H 17.349 20.398 28.012
C 15.33  19.938 28.698
H 14.718 20.755 28.548
H 15.074 19.47  29.647
C 15.156 19.062 27.41 
H 16.134 18.757 27.13 
H 14.687 19.642 26.652
C 14.387 17.773 27.63 
H 14.827 17.317 28.48 
C 14.676 16.756 26.474
H 14.557 17.286 25.512
H 15.687 16.39  26.566
H 13.95  15.955 26.585
C 12.882 17.812 28.023
H 12.851 18.379 28.915
H 12.628 16.792 28.27 
C 11.878 18.432 26.979
H 12.437 19.    26.187
H 11.205 19.144 27.522
C 10.969 17.413 26.31 
H 11.369 16.434 26.433
H 11.029 17.841 25.337
C  9.479 17.431 26.741
H  9.175 18.431 26.442
C  9.205 17.576 28.281
H  9.464 18.484 28.737
H  8.18  17.431 28.498
H  9.766 16.807 28.776
C  8.53  16.399 26.082
H  7.502 16.628 26.37 
H  8.649 15.42  26.618
C  8.584 16.315 24.545
H  9.43  16.787 24.115
H  7.704 16.959 24.167
C  8.444 14.913 23.96 
H  7.381 14.69  23.62 
H  8.557 14.184 24.826
C  9.53  14.611 22.84 
H  9.587 15.428 22.138
C  9.076 13.501 21.82 
H  8.899 12.527 22.275
H  8.05  13.774 21.477
H  9.696 13.394 20.926
C 11.019 14.437 23.297
H 11.649 14.344 22.401
H 11.259 15.35  23.848
H 11.142 13.592 23.903
