137

Mg 20.794 24.637 38.441
C 19.087 21.586 38.808
C 21.271 23.844 35.144
H 21.638 23.6   34.075
C 21.773 27.851 37.823
H 22.069 28.884 37.598
C 20.093 25.412 41.632
H 19.857 25.678 42.644
N 20.2   23.044 37.109
C 19.438 21.88  37.47 
C 19.343 20.898 36.352
H 19.803 19.986 36.694
C 20.316 21.532 35.371
H 19.894 21.726 34.417
C 20.71  22.856 35.935
C 21.573 20.693 35.127
H 22.064 20.569 36.082
H 21.402 19.667 34.87 
H 22.146 21.264 34.335
C 17.865 20.678 35.881
H 17.604 21.612 35.338
H 17.183 20.739 36.695
C 17.635 19.392 35.052
H 18.521 18.978 34.71 
H 17.286 18.502 35.741
C 16.69  19.439 33.915
O 16.009 20.391 33.694
O 16.683 18.249 33.212
N 21.372 25.67  36.823
C 21.505 25.178 35.51 
C 22.    26.138 34.657
C 22.189 27.334 35.385
C 21.725 26.991 36.774
C 22.487 26.007 33.2  
H 23.381 26.674 33.089
H 22.752 24.961 32.963
H 21.748 26.388 32.53 
C 22.695 28.631 34.952
H 23.263 29.234 35.687
C 22.537 29.146 33.76 
H 21.968 28.61  32.966
H 23.028 30.11  33.479
N 21.084 26.313 39.605
C 21.504 27.521 39.149
C 21.648 28.421 40.339
C 21.148 27.678 41.392
C 20.762 26.43  40.89 
C 22.04  29.892 40.278
H 22.217 30.176 41.346
H 23.01  30.014 39.796
H 21.337 30.387 39.754
C 21.145 28.169 42.79 
H 21.182 27.322 43.46 
H 22.018 28.794 43.02 
C 19.849 28.85  43.202
H 19.09  28.166 42.99 
H 19.844 28.875 44.309
H 19.614 29.779 42.7  
N 19.75  23.765 39.859
C 19.596 24.224 41.142
C 18.82  23.219 41.992
C 18.768 22.162 41.076
C 19.26  22.548 39.862
C 18.297 23.283 43.385
H 17.574 24.098 43.5  
H 17.906 22.328 43.674
H 19.107 23.53  43.956
C 18.313 20.78  40.952
O 17.881 20.035 41.812
C 18.509 20.336 39.467
H 17.59  20.117 39.126
C 19.364 19.101 39.464
O 20.502 19.206 39.838
O 18.714 18.011 39.024
C 19.458 16.713 39.232
H 19.094 16.14  40.076
H 19.39  16.105 38.324
H 20.59  16.759 39.377
C 15.745 18.214 32.141
H 16.064 18.873 31.372
H 14.749 18.441 32.578
C 15.744 16.762 31.654
H 16.798 16.367 31.512
C 14.742 15.986 31.235
C 13.344 16.606 31.151
H 13.429 17.633 30.905
H 12.752 16.219 30.299
H 12.748 16.516 32.032
C 14.773 14.609 30.75 
H 15.888 14.409 30.852
H 14.562 14.573 29.739
C 13.887 13.59  31.593
H 13.432 14.012 32.487
H 14.743 12.97  31.913
C 12.9   12.893 30.707
H 13.44  12.011 30.317
H 12.696 13.451 29.812
C 11.466 12.619 31.265
H 11.651 12.25  32.274
C 10.843 11.589 30.321
H  9.818 11.337 30.547
H 10.745 11.931 29.315
H 11.389 10.629 30.417
C 10.551 13.785 31.6  
H 11.049 14.517 32.296
H  9.651 13.32  32.06 
C 10.058 14.62  30.368
H 10.557 14.429 29.411
H 10.264 15.616 30.633
C  8.576 14.404 30.005
H  8.175 13.651 30.633
H  8.423 14.137 28.935
C  7.616 15.584 30.458
H  8.211 16.405 30.015
C  7.675 15.74  32.005
H  7.076 16.506 32.302
H  7.39  14.813 32.531
H  8.59  16.024 32.484
C  6.243 15.356 29.675
H  5.949 14.304 29.808
H  6.575 15.255 28.66 
C  5.204 16.474 29.98 
H  5.781 17.355 30.326
H  4.683 16.069 30.867
C  4.211 16.787 28.881
H  3.151 16.749 29.268
H  4.365 16.113 28.136
C  4.6   18.088 28.146
H  4.498 18.883 28.883
C  3.641 18.465 26.96 
H  3.716 17.672 26.265
H  2.573 18.504 27.215
H  4.062 19.325 26.522
C  6.055 18.153 27.72 
H  6.274 19.073 27.188
H  6.782 18.067 28.546
H  6.423 17.407 27.027
