137

Mg 25.624 28.713 41.737
C 24.111 25.61  41.092
C 27.746 28.208 39.125
H 28.366 27.985 38.352
C 27.154 31.62  42.511
H 27.639 32.523 42.686
C 23.569 29.053 44.555
H 22.917 29.106 45.406
N 25.872 27.067 40.332
C 25.105 25.936 40.194
C 25.517 25.205 38.93 
H 25.926 24.242 39.26 
C 26.745 26.013 38.419
H 26.52  26.477 37.457
C 26.808 27.21  39.38 
C 28.071 25.271 38.145
H 28.264 24.678 39.058
H 27.932 24.782 37.215
H 28.867 25.918 37.966
C 24.305 25.166 37.887
H 24.094 26.102 37.374
H 23.394 24.832 38.435
C 24.553 24.265 36.636
H 25.446 23.75  36.924
H 23.79  23.51  36.579
C 24.594 24.785 35.245
O 25.558 25.387 34.79 
O 23.383 24.685 34.628
N 27.23  29.785 40.931
C 27.974 29.392 39.845
C 28.973 30.398 39.639
C 28.728 31.484 40.53 
C 27.664 30.961 41.416
C 30.109 30.27  38.642
H 29.586 30.263 37.7  
H 30.83  31.075 38.65 
H 30.596 29.271 38.714
C 29.459 32.665 40.736
H 30.534 32.727 40.632
C 28.742 33.77  40.962
H 27.634 33.885 41.121
H 29.378 34.712 40.921
N 25.38  30.192 43.263
C 26.145 31.302 43.435
C 25.659 32.071 44.623
C 24.605 31.321 45.168
C 24.469 30.112 44.338
C 26.299 33.444 45.103
H 25.525 33.87  45.732
H 27.195 33.35  45.672
H 26.438 34.04  44.21 
C 23.752 31.776 46.284
H 23.482 30.89  46.928
H 24.346 32.461 46.929
C 22.601 32.507 45.719
H 22.9   33.534 45.406
H 22.171 31.944 44.893
H 21.862 32.607 46.516
N 24.249 27.609 42.73 
C 23.403 27.901 43.79 
C 22.516 26.761 44.063
C 22.747 25.897 43.002
C 23.84  26.342 42.185
C 21.357 26.684 45.028
H 21.797 26.572 46.   
H 20.816 27.653 44.871
H 20.761 25.788 44.793
C 22.258 24.647 42.41 
O 21.342 23.965 42.809
C 23.163 24.431 41.209
H 22.547 24.368 40.368
C 23.848 23.108 41.355
O 24.131 22.479 42.339
O 24.156 22.594 40.054
C 25.108 21.447 39.997
H 25.016 20.917 39.065
H 26.083 21.834 40.249
H 24.796 20.706 40.704
C 23.356 25.285 33.308
H 24.109 24.934 32.63 
H 23.539 26.327 33.576
C 21.98  25.132 32.627
H 21.625 24.124 32.602
C 21.279 26.019 31.925
C 21.691 27.419 31.631
H 20.84  28.088 31.651
H 22.45  27.783 32.398
H 22.072 27.401 30.568
C 19.965 25.636 31.327
H 19.924 24.52  31.16 
H 19.894 26.111 30.341
C 18.652 26.115 32.142
H 17.976 26.643 31.422
H 18.729 26.879 32.863
C 18.009 24.915 32.95 
H 18.84  24.214 33.084
H 17.227 24.367 32.386
C 17.462 25.22  34.414
H 18.298 25.791 34.823
C 17.304 23.967 35.309
H 16.93  24.133 36.318
H 16.734 23.161 34.84 
H 18.26  23.52  35.391
C 16.158 26.036 34.267
H 16.423 26.975 33.742
H 15.882 26.251 35.267
C 14.876 25.504 33.638
H 14.003 25.778 34.264
H 15.003 24.411 33.547
C 14.787 25.995 32.201
H 15.76  26.083 31.778
H 14.447 27.011 32.249
C 13.892 25.222 31.205
H 14.299 24.18  31.209
C 13.931 25.906 29.851
H 13.111 26.703 29.812
H 14.915 26.166 29.55 
H 13.608 25.2   29.121
C 12.456 25.194 31.798
H 12.03  26.188 31.739
H 12.528 24.901 32.894
C 11.494 24.233 31.1  
H 12.073 23.435 30.566
H 10.997 24.96  30.426
C 10.402 23.623 31.982
H  9.442 24.061 31.689
H 10.493 23.845 33.042
C 10.318 22.059 32.038
H 11.39  21.634 32.228
C  9.892 21.292 30.722
H 10.515 21.742 29.905
H 10.161 20.206 30.837
H  8.831 21.198 30.428
C  9.347 21.554 33.18 
H  9.25  20.462 33.171
H  9.737 21.844 34.18 
H  8.488 22.1   32.996
