137

Mg 25.07  28.912 41.492
C 23.263 26.31  40.098
C 27.164 28.916 38.866
H 27.729 29.06  37.961
C 26.823 31.439 42.994
H 27.37  32.294 43.467
C 22.994 28.736 44.234
H 22.269 28.695 45.03 
N 25.264 27.704 39.702
C 24.316 26.754 39.274
C 24.779 26.147 37.932
H 25.132 25.161 38.149
C 26.094 26.922 37.575
H 25.906 27.34  36.652
C 26.264 27.89  38.79 
C 27.396 25.97  37.454
H 27.642 25.635 38.454
H 27.244 25.104 36.782
H 28.162 26.487 36.882
C 23.633 26.159 36.852
H 23.672 27.042 36.191
H 22.805 26.166 37.44 
C 23.49  24.986 35.877
H 24.355 24.369 36.094
H 22.69  24.312 36.107
C 23.491 25.397 34.44 
O 24.429 25.879 33.848
O 22.314 25.211 33.869
N 26.705 30.042 40.979
C 27.371 29.964 39.766
C 28.321 31.036 39.686
C 28.158 31.832 40.857
C 27.216 31.102 41.687
C 29.208 31.243 38.479
H 28.673 31.252 37.529
H 29.591 32.224 38.632
H 30.154 30.688 38.471
C 28.84  33.062 41.175
H 29.872 33.184 40.795
C 28.281 34.167 41.706
H 27.214 34.127 41.941
H 28.765 35.132 41.807
N 25.069 29.938 43.386
C 25.804 30.936 43.78 
C 25.404 31.348 45.176
C 24.267 30.563 45.449
C 24.066 29.701 44.328
C 26.048 32.538 45.817
H 26.304 32.378 46.835
H 26.997 32.933 45.368
H 25.407 33.411 45.782
C 23.469 30.489 46.704
H 22.387 30.565 46.496
H 23.603 29.505 47.141
C 23.922 31.353 47.925
H 24.902 31.104 48.327
H 23.889 32.404 47.81 
H 23.141 31.25  48.663
N 23.549 27.763 42.125
C 22.716 27.831 43.237
C 21.631 26.84  43.23 
C 21.883 26.21  41.978
C 23.004 26.796 41.362
C 20.609 26.509 44.288
H 20.13  27.428 44.376
H 19.885 25.685 44.06 
H 21.18  26.227 45.181
C 21.347 25.226 41.113
O 20.424 24.459 41.317
C 22.19  25.191 39.881
H 21.561 25.311 39.021
C 22.727 23.823 39.903
O 22.995 23.125 40.897
O 23.101 23.411 38.6  
C 23.564 22.004 38.595
H 23.625 21.638 37.549
H 24.542 21.854 39.085
H 22.893 21.438 39.258
C 22.4   25.331 32.391
H 23.195 24.731 32.035
H 22.591 26.349 32.04 
C 21.076 24.889 31.921
H 20.824 23.961 32.327
C 20.158 25.578 31.212
C 20.533 26.901 30.518
H 20.079 27.132 29.55 
H 20.36  27.806 31.113
H 21.579 26.952 30.271
C 18.786 24.884 30.931
H 18.885 23.825 31.101
H 18.456 25.025 29.914
C 17.689 25.567 31.854
H 16.905 25.869 31.185
H 18.011 26.449 32.394
C 17.066 24.651 32.889
H 17.764 23.828 33.057
H 16.189 24.204 32.467
C 16.637 25.202 34.323
H 17.492 25.623 34.829
C 15.987 23.994 35.106
H 15.609 24.381 36.099
H 15.113 23.577 34.631
H 16.754 23.228 35.258
C 15.619 26.415 34.245
H 16.13  27.284 33.922
H 15.398 26.725 35.289
C 14.285 26.093 33.527
H 13.577 26.147 34.285
H 14.365 25.085 33.08 
C 13.821 27.024 32.301
H 14.754 27.473 31.978
H 13.169 27.757 32.744
C 13.044 26.235 31.3  
H 13.578 25.373 31.041
C 12.846 27.09  30.031
H 12.433 27.996 30.254
H 13.794 27.256 29.531
H 12.241 26.476 29.37 
C 11.697 25.759 31.898
H 10.999 26.599 31.908
H 11.73  25.631 33.002
C 11.188 24.447 31.355
H 11.527 23.772 32.167
H 11.741 24.227 30.531
C  9.686 24.324 31.119
H  9.619 23.877 30.134
H  9.316 25.335 30.973
C  8.722 23.634 32.162
H  9.055 24.044 33.138
C  9.07  22.166 32.174
H 10.093 21.864 32.428
H  8.44  21.788 33.004
H  8.581 21.735 31.259
C  7.188 23.827 31.905
H  6.523 23.312 32.575
H  6.933 24.882 31.836
H  7.073 23.367 30.913
