137

Mg 36.471 33.198 36.188
C 34.133 30.911 35.059
C 38.478 32.272 33.44 
H 39.102 31.911 32.611
C 38.941 35.188 37.345
H 39.757 35.909 37.573
C 34.625 33.795 38.989
H 34.091 33.913 39.956
N 36.285 31.804 34.43 
C 35.266 30.919 34.227
C 35.519 29.97  33.056
H 35.544 28.863 33.284
C 36.92  30.499 32.612
H 37.007 30.935 31.578
C 37.272 31.661 33.57 
C 38.008 29.425 32.666
H 38.936 29.87  32.802
H 37.897 28.79  33.528
H 38.029 28.855 31.742
C 34.428 30.041 31.939
H 34.354 31.074 31.629
H 33.442 29.6   32.373
C 34.704 29.266 30.63 
H 35.177 29.925 29.976
H 35.4   28.433 30.905
C 33.411 28.862 29.909
O 33.093 27.748 29.547
O 32.577 29.968 29.732
N 38.393 33.627 35.514
C 39.042 33.164 34.359
C 40.321 33.817 34.245
C 40.501 34.647 35.352
C 39.236 34.431 36.156
C 41.241 33.444 33.069
H 40.8   33.53  32.075
H 42.133 34.069 33.061
H 41.782 32.499 33.211
C 41.728 35.405 35.616
H 42.128 36.076 34.765
C 42.328 35.4   36.777
H 41.884 34.83  37.637
H 43.273 35.865 36.886
N 36.767 34.325 37.908
C 37.816 35.101 38.134
C 37.565 35.81  39.398
C 36.276 35.403 39.843
C 35.851 34.472 38.916
C 38.525 36.805 40.042
H 39.389 36.195 40.398
H 38.939 37.532 39.411
H 38.032 37.365 40.782
C 35.49  35.739 41.125
H 35.085 34.842 41.537
H 36.159 36.219 41.778
C 34.228 36.601 40.921
H 34.663 37.455 40.414
H 33.565 36.202 40.163
H 33.709 36.802 41.826
N 34.683 32.617 36.919
C 34.03  32.906 38.051
C 32.839 32.167 38.171
C 32.808 31.352 37.051
C 33.959 31.709 36.245
C 31.983 32.007 39.315
H 31.562 32.905 39.741
H 31.053 31.421 39.154
H 32.557 31.491 40.175
C 32.091 30.284 36.37 
O 31.15  29.646 36.73 
C 32.925 29.984 35.073
H 32.239 30.25  34.298
C 33.129 28.527 35.001
O 34.073 27.926 35.465
O 32.207 27.886 34.144
C 32.587 26.51  33.765
H 32.716 25.847 34.65 
H 31.839 26.124 33.157
H 33.431 26.411 33.092
C 31.241 29.708 29.218
H 30.661 29.13  29.989
H 31.236 29.074 28.341
C 30.755 31.091 28.8  
H 31.494 31.685 28.198
C 29.52  31.578 28.861
C 28.297 30.923 29.407
H 27.806 31.569 30.231
H 27.545 30.666 28.632
H 28.509 30.043 29.968
C 29.306 32.945 28.268
H 30.24  33.432 28.012
H 28.926 33.623 29.036
C 28.539 32.987 26.941
H 28.402 31.919 26.679
H 29.006 33.435 26.073
C 27.082 33.465 27.049
H 27.021 33.886 28.029
H 26.428 32.587 27.052
C 26.549 34.628 26.188
H 26.553 34.191 25.142
C 27.272 35.972 26.251
H 27.244 36.363 27.22 
H 28.318 35.733 26.064
H 26.755 36.693 25.601
C 25.06  34.95  26.574
H 24.751 35.79  25.968
H 25.028 35.22  27.622
C 24.018 33.802 26.337
H 24.417 32.849 26.115
H 23.599 34.103 25.41 
C 22.985 33.73  27.445
H 22.135 34.32  26.978
H 23.282 34.353 28.313
C 22.575 32.355 27.945
H 23.565 31.782 27.967
C 21.694 31.645 26.871
H 21.607 30.577 27.228
H 20.725 32.216 26.947
H 22.185 31.634 25.876
C 21.831 32.324 29.334
H 21.324 31.398 29.379
H 21.065 33.05  29.308
C 22.705 32.574 30.48 
H 22.327 33.443 31.032
H 23.73  32.757 30.143
C 22.644 31.44  31.541
H 21.819 30.713 31.262
H 22.321 31.927 32.513
C 23.901 30.59  31.683
H 24.636 31.321 31.988
C 24.316 29.901 30.338
H 24.725 30.711 29.683
H 25.052 29.16  30.583
H 23.414 29.605 29.86 
C 23.795 29.665 32.883
H 22.811 29.259 32.945
H 24.674 29.009 32.779
H 23.985 30.14  33.855
