137

Mg 33.28  31.201 36.42 
C 31.688 29.183 34.06 
C 36.112 31.005 34.464
H 37.04  30.975 33.9  
C 34.995 32.692 38.907
H 35.506 33.191 39.745
C 30.46  30.679 38.684
H 29.646 30.6   39.385
N 33.714 30.468 34.483
C 32.88  29.746 33.657
C 33.421 29.547 32.279
H 33.237 28.468 31.942
C 34.912 29.829 32.509
H 35.204 30.575 31.763
C 34.928 30.476 33.936
C 35.861 28.599 32.54 
H 35.711 28.07  33.422
H 35.63  27.901 31.712
H 36.825 28.952 32.449
C 32.781 30.541 31.23 
H 33.007 31.639 31.44 
H 31.714 30.515 31.466
C 32.981 30.248 29.753
H 33.501 31.125 29.281
H 33.589 29.387 29.645
C 31.698 30.007 28.939
O 31.482 30.302 27.795
O 30.948 29.058 29.623
N 35.163 31.827 36.576
C 36.216 31.647 35.701
C 37.446 32.172 36.258
C 37.126 32.63  37.536
C 35.728 32.409 37.678
C 38.727 32.272 35.45 
H 39.05  31.221 35.228
H 38.584 32.939 34.611
H 39.523 32.724 36.005
C 37.981 33.272 38.561
H 37.558 33.875 39.347
C 39.287 33.006 38.695
H 39.805 32.275 38.05 
H 39.891 33.407 39.533
N 32.831 31.566 38.483
C 33.712 32.256 39.267
C 33.091 32.388 40.612
C 31.783 31.886 40.518
C 31.673 31.336 39.166
C 33.802 33.065 41.758
H 33.638 32.654 42.72 
H 34.902 32.942 41.643
H 33.582 34.1   41.646
C 30.749 31.923 41.6  
H 30.398 30.884 41.727
H 31.189 32.267 42.522
C 29.587 32.822 41.166
H 28.927 33.025 42.013
H 30.042 33.784 40.77 
H 29.011 32.426 40.394
N 31.464 30.189 36.382
C 30.397 30.066 37.368
C 29.303 29.288 36.719
C 29.766 28.935 35.429
C 31.103 29.524 35.337
C 27.919 29.055 37.316
H 27.452 29.998 37.553
H 27.281 28.464 36.677
H 27.951 28.63  38.263
C 29.46  28.176 34.234
O 28.477 27.507 33.931
C 30.719 28.281 33.359
H 30.463 28.68  32.371
C 31.24  26.897 33.231
O 31.775 26.296 34.122
O 31.168 26.464 31.952
C 31.562 25.065 31.679
H 30.845 24.42  32.14 
H 31.494 24.973 30.631
H 32.636 24.853 31.831
C 29.739 28.659 28.913
H 29.944 28.156 28.01 
H 29.279 29.577 28.517
C 28.879 27.906 29.89 
H 28.767 28.334 30.859
C 28.404 26.621 29.747
C 28.715 25.843 28.471
H 28.569 24.739 28.724
H 27.88  26.177 27.834
H 29.724 26.065 28.06 
C 27.844 25.817 30.952
H 27.874 26.478 31.804
H 28.521 24.931 31.196
C 26.48  25.237 30.673
H 26.51  24.191 30.602
H 26.215 25.741 29.717
C 25.356 25.527 31.741
H 24.724 26.292 31.259
H 25.794 26.033 32.578
C 24.538 24.273 32.248
H 25.115 23.355 32.443
C 23.741 23.523 31.165
H 24.192 23.329 30.217
H 23.156 22.669 31.52 
H 22.996 24.19  30.875
C 23.783 24.504 33.578
H 24.598 24.655 34.254
H 23.319 23.601 33.748
C 22.736 25.732 33.705
H 21.74  25.276 33.96 
H 22.649 26.254 32.788
C 23.061 26.717 34.869
H 23.053 27.754 34.438
H 24.103 26.567 35.114
C 22.221 26.845 36.138
H 21.254 27.314 35.964
C 22.876 27.987 37.039
H 22.501 28.86  36.615
H 22.478 27.876 38.086
H 23.963 27.965 37.048
C 22.015 25.456 36.87 
H 22.938 25.176 37.306
H 21.85  24.66  36.117
C 20.82  25.318 37.835
H 20.07  24.57  37.473
H 20.355 26.343 37.979
C 21.239 24.743 39.19 
H 20.8   25.343 39.956
H 22.311 24.883 39.298
C 20.85  23.253 39.54 
H 21.018 22.762 38.59 
C 19.335 23.173 39.927
H 19.003 22.072 39.812
H 19.225 23.651 40.879
H 18.795 23.819 39.288
C 21.72  22.587 40.654
H 21.374 21.617 40.898
H 22.775 22.652 40.225
H 21.723 23.201 41.571
