137

Mg 28.294 28.965 33.436
C 27.634 25.715 32.44 
C 30.42  29.259 30.586
H 31.022 29.295 29.683
C 29.316 32.077 34.413
H 29.565 33.048 34.804
C 26.826 28.362 36.379
H 26.375 28.26  37.386
N 28.911 27.718 31.787
C 28.505 26.453 31.607
C 29.056 25.785 30.359
H 29.595 24.855 30.611
C 29.993 26.866 29.773
H 29.585 27.212 28.82 
C 29.766 28.059 30.759
C 31.509 26.443 29.527
H 31.986 26.047 30.461
H 31.608 25.738 28.766
H 31.995 27.418 29.289
C 28.06  25.293 29.267
H 27.629 26.068 28.701
H 27.216 24.781 29.768
C 28.57  24.401 28.227
H 28.549 24.829 27.27 
H 29.634 24.097 28.361
C 27.895 23.045 28.081
O 28.504 21.996 28.3  
O 26.532 23.153 27.888
N 29.696 30.377 32.613
C 30.414 30.32  31.5  
C 31.1   31.595 31.258
C 30.875 32.372 32.386
C 29.917 31.601 33.191
C 32.058 31.839 30.105
H 31.603 32.57  29.474
H 32.93  32.226 30.564
H 32.336 30.924 29.63 
C 31.262 33.706 32.835
H 31.446 33.909 33.904
C 31.625 34.692 31.969
H 31.612 34.514 30.864
H 31.981 35.691 32.219
N 27.924 30.112 35.083
C 28.449 31.344 35.315
C 27.861 31.833 36.571
C 27.318 30.682 37.173
C 27.363 29.633 36.217
C 28.    33.166 37.068
H 27.095 33.61  37.494
H 28.928 33.177 37.68 
H 28.105 33.903 36.226
C 26.799 30.514 38.609
H 25.682 30.437 38.54 
H 27.273 29.68  39.174
C 26.908 31.645 39.643
H 27.91  31.772 39.937
H 26.383 32.467 39.169
H 26.305 31.326 40.447
N 27.165 27.37  34.199
C 26.671 27.279 35.437
C 26.125 25.924 35.595
C 26.351 25.267 34.362
C 27.147 26.202 33.641
C 25.465 25.361 36.813
H 24.395 25.092 36.778
H 26.039 24.41  37.003
H 25.638 26.079 37.625
C 26.164 24.063 33.646
O 25.622 23.029 33.984
C 27.03  24.296 32.338
H 26.368 24.069 31.532
C 28.099 23.202 32.353
O 29.29  23.295 32.653
O 27.566 21.952 32.001
C 28.481 20.844 31.931
H 28.941 20.818 30.984
H 29.227 20.81  32.653
H 27.931 19.919 31.919
C 25.849 21.922 28.08 
H 26.263 21.484 28.961
H 26.011 21.24  27.224
C 24.352 22.094 28.033
H 24.11  22.717 27.235
C 23.416 21.581 28.863
C 23.612 20.552 29.963
H 22.746 19.927 30.186
H 24.434 19.875 29.789
H 23.855 21.043 30.863
C 22.007 22.076 28.54 
H 22.179 22.864 27.817
H 21.597 22.33  29.523
C 21.172 20.889 27.89 
H 20.614 20.433 28.735
H 21.797 20.091 27.544
C 20.307 21.417 26.786
H 20.852 21.625 25.885
H 19.829 22.37  27.127
C 19.036 20.634 26.286
H 19.373 19.642 25.899
C 18.487 21.284 25.028
H 17.817 22.107 25.318
H 19.299 21.522 24.366
H 17.798 20.66  24.534
C 17.929 20.487 27.426
H 18.27  19.869 28.186
H 17.045 19.92  27.158
C 17.247 21.701 28.005
H 16.188 21.602 28.133
H 17.333 22.491 27.265
C 17.891 22.372 29.249
H 18.625 23.143 28.922
H 18.368 21.681 29.78 
C 16.927 23.101 30.222
H 16.263 23.719 29.635
C 17.836 23.978 31.144
H 18.399 23.22  31.667
H 18.438 24.627 30.562
H 17.214 24.42  31.917
C 16.096 22.116 31.095
H 16.718 21.548 31.821
H 15.79  21.403 30.393
C 14.805 22.709 31.715
H 14.023 22.092 31.271
H 14.772 23.762 31.407
C 14.722 22.602 33.263
H 15.563 21.965 33.683
H 13.764 22.204 33.499
C 14.822 23.966 33.933
H 15.251 24.617 33.263
C 15.641 23.934 35.238
H 15.879 24.896 35.567
H 15.072 23.455 36.046
H 16.549 23.402 34.983
C 13.403 24.416 34.19 
H 12.894 23.772 34.894
H 13.395 25.497 34.444
H 12.788 24.398 33.234
