137

Mg 29.65  28.851 32.862
C 27.482 26.81  31.128
C 31.722 28.817 30.219
H 32.383 28.859 29.298
C 31.975 30.127 34.813
H 32.904 30.502 35.287
C 27.521 28.556 35.691
H 26.866 28.491 36.537
N 29.542 28.108 30.828
C 28.563 27.268 30.407
C 28.774 26.906 28.927
H 28.776 25.805 28.888
C 30.224 27.449 28.628
H 30.066 27.963 27.688
C 30.534 28.234 29.931
C 31.261 26.291 28.36 
H 31.569 25.818 29.272
H 30.837 25.628 27.579
H 32.147 26.859 28.073
C 27.62  27.358 27.92 
H 27.747 28.371 27.736
H 26.672 27.21  28.477
C 27.608 26.451 26.651
H 27.846 27.103 25.806
H 28.381 25.669 26.7  
C 26.253 25.78  26.288
O 25.869 25.591 25.138
O 25.487 25.506 27.36 
N 31.485 29.543 32.5  
C 32.224 29.354 31.396
C 33.625 29.926 31.601
C 33.627 30.396 32.903
C 32.267 30.045 33.454
C 34.755 30.035 30.567
H 34.581 29.264 29.837
H 34.712 30.976 30.026
H 35.784 29.869 30.937
C 34.753 30.917 33.687
H 34.859 30.651 34.677
C 35.606 31.833 33.32 
H 35.422 32.367 32.343
H 36.388 32.222 33.931
N 29.622 29.45  34.819
C 30.758 29.928 35.49 
C 30.481 30.143 36.937
C 29.155 29.74  37.13 
C 28.669 29.226 35.848
C 31.521 30.632 37.926
H 31.233 31.504 38.559
H 31.664 29.813 38.624
H 32.532 30.853 37.512
C 28.429 29.695 38.476
H 28.025 28.637 38.57 
H 29.247 29.8   39.211
C 27.328 30.838 38.573
H 26.807 30.857 39.529
H 27.709 31.832 38.538
H 26.785 30.72  37.673
N 27.854 27.973 33.331
C 27.149 27.904 34.517
C 25.992 27.001 34.295
C 26.074 26.603 32.997
C 27.176 27.198 32.434
C 24.905 26.65  35.304
H 24.089 26.04  34.89 
H 25.349 26.062 36.102
H 24.414 27.467 35.754
C 25.425 25.74  32.008
O 24.388 25.116 32.114
C 26.417 25.792 30.793
H 25.844 25.907 29.916
C 26.967 24.456 30.719
O 27.633 23.979 31.582
O 26.697 23.891 29.557
C 27.402 22.56  29.331
H 28.497 22.797 29.415
H 26.929 21.799 30.113
H 27.233 22.137 28.318
C 24.159 24.938 27.024
H 24.281 23.961 26.553
H 23.61  25.499 26.382
C 23.317 24.791 28.264
H 22.972 25.8   28.512
C 22.943 23.663 28.916
C 23.346 22.25  28.423
H 23.655 21.546 29.199
H 22.428 21.848 28.094
H 24.073 22.136 27.66 
C 21.912 23.843 30.095
H 21.587 24.823 30.061
H 22.473 23.718 31.002
C 20.8   22.753 30.104
H 21.122 22.051 30.866
H 20.787 22.249 29.182
C 19.378 23.297 30.427
H 19.606 24.273 30.798
H 18.929 22.69  31.199
C 18.421 23.338 29.137
H 19.045 23.79  28.315
C 17.331 24.366 29.399
H 16.857 23.98  30.258
H 17.691 25.352 29.623
H 16.674 24.445 28.586
C 17.844 21.979 28.584
H 18.709 21.314 28.455
H 17.445 22.186 27.58 
C 16.714 21.381 29.421
H 16.021 21.087 28.652
H 16.124 22.063 30.102
C 17.034 20.004 30.155
H 18.118 20.009 30.319
H 16.85  19.198 29.467
C 16.412 19.76  31.51 
H 16.52  20.606 32.14 
C 17.013 18.512 32.142
H 16.656 18.38  33.154
H 16.834 17.613 31.558
H 18.091 18.698 32.221
C 14.908 19.502 31.297
H 14.874 18.679 30.555
H 14.388 20.313 30.687
C 14.096 19.462 32.61 
H 13.116 20.051 32.589
H 14.698 19.85  33.429
C 13.839 17.991 33.075
H 13.93  17.993 34.129
H 14.516 17.299 32.625
C 12.503 17.387 32.706
H 11.75  18.097 33.022
C 12.384 16.058 33.478
H 13.192 15.391 33.359
H 12.435 16.357 34.524
H 11.396 15.57  33.289
C 12.384 17.068 31.177
H 13.295 16.513 30.985
H 11.449 16.488 30.987
H 12.42  17.89  30.505
