137

Mg 20.509 25.488 28.743
C 23.87  24.777 28.343
C 21.363 27.237 31.595
H 21.634 27.832 32.424
C 17.387 26.551 28.794
H 16.354 26.754 28.857
C 19.799 23.707 25.847
H 19.504 23.118 24.941
N 22.372 25.909 29.884
C 23.665 25.531 29.502
C 24.666 26.134 30.503
H 25.242 25.277 30.976
C 23.827 26.748 31.619
H 24.066 27.734 31.949
C 22.437 26.677 30.982
C 23.884 25.87  32.942
H 24.861 25.638 33.348
H 23.23  26.193 33.725
H 23.458 24.89  32.716
C 25.781 27.041 29.85 
H 25.223 27.873 29.422
H 26.264 26.398 29.106
C 26.784 27.518 30.935
H 26.431 27.2   31.895
H 27.74  27.014 30.669
C 27.098 29.024 30.944
O 28.23  29.461 30.758
O 26.049 29.827 31.212
N 19.562 26.723 29.967
C 20.043 27.325 31.141
C 18.986 28.012 31.844
C 17.904 27.852 30.972
C 18.241 27.02  29.821
C 18.939 28.665 33.254
H 18.92  27.994 34.08 
H 19.747 29.327 33.32 
H 18.122 29.248 33.348
C 16.591 28.427 31.181
H 16.278 28.663 32.226
C 15.979 29.041 30.138
H 16.353 28.928 29.081
H 15.147 29.691 30.368
N 18.896 25.138 27.56 
C 17.664 25.704 27.686
C 16.718 25.33  26.622
C 17.497 24.472 25.866
C 18.791 24.4   26.414
C 15.282 25.824 26.435
H 15.25  26.827 26.109
H 14.72  25.249 25.693
H 14.769 25.715 27.395
C 16.991 23.78  24.564
H 17.337 22.746 24.66 
H 15.923 23.894 24.405
C 17.66  24.242 23.225
H 16.955 24.05  22.334
H 17.759 25.332 23.267
H 18.607 23.853 23.072
N 21.515 24.406 27.409
C 21.127 23.628 26.314
C 22.34  22.981 25.698
C 23.369 23.463 26.401
C 22.874 24.294 27.458
C 22.413 21.973 24.562
H 23.28  21.314 24.804
H 21.406 21.499 24.412
H 22.571 22.573 23.645
C 24.845 23.283 26.639
O 25.671 22.583 26.102
C 25.185 24.175 27.826
H 25.979 24.92  27.541
C 25.604 23.137 28.816
O 24.913 22.187 29.111
O 26.773 23.515 29.451
C 27.062 22.713 30.648
H 26.485 23.067 31.523
H 26.902 21.637 30.596
H 28.099 22.776 30.931
C 26.519 31.182 31.272
H 27.101 31.575 30.379
H 27.183 31.409 32.059
C 25.283 32.031 31.316
H 24.506 31.378 31.605
C 25.029 33.203 30.701
C 26.118 34.157 30.229
H 27.183 33.787 30.258
H 25.903 34.363 29.144
H 26.066 35.074 30.751
C 23.675 33.703 30.556
H 22.951 32.872 30.936
H 23.498 33.893 29.475
C 23.405 34.951 31.447
H 24.253 35.14  32.044
H 22.586 34.772 32.113
C 23.046 36.187 30.663
H 22.539 35.828 29.753
H 24.033 36.57  30.264
C 22.2   37.358 31.318
H 22.767 37.719 32.127
C 20.928 36.858 32.002
H 20.404 36.137 31.345
H 21.118 36.362 32.931
H 20.215 37.653 32.228
C 21.799 38.414 30.218
H 21.092 39.059 30.715
H 21.27  37.916 29.376
C 23.002 39.333 29.767
H 22.802 39.649 28.759
H 23.968 38.844 29.72 
C 23.262 40.592 30.588
H 24.266 40.609 30.916
H 22.716 40.542 31.522
C 22.963 42.024 29.98 
H 23.472 42.201 29.003
C 23.438 43.027 31.002
H 24.5   43.015 31.261
H 23.318 44.09  30.536
H 22.836 42.934 31.961
C 21.451 42.179 29.9  
H 21.079 42.061 30.903
H 21.114 41.282 29.376
C 20.983 43.459 29.181
H 21.845 43.954 28.687
H 20.383 44.119 29.82 
C 20.118 43.147 27.96 
H 19.252 42.47  28.188
H 20.737 42.527 27.291
C 19.542 44.354 27.212
H 20.27  45.111 26.805
C 18.492 45.086 28.021
H 18.159 45.922 27.412
H 17.676 44.389 28.365
H 18.895 45.607 28.897
C 18.799 43.743 25.963
H 17.881 43.409 26.316
H 18.785 44.411 25.147
H 19.358 42.799 25.625
