137

Mg 28.634 25.947 43.484
C 25.125 25.687 43.817
C 28.431 24.48  40.431
H 28.347 24.021 39.437
C 31.982 26.199 43.183
H 33.067 26.333 42.912
C 28.786 27.293 46.616
H 28.972 27.688 47.608
N 26.964 25.172 42.212
C 25.604 25.138 42.571
C 24.721 24.636 41.333
H 23.975 23.903 41.52 
C 25.859 24.219 40.314
H 25.77  24.851 39.496
C 27.155 24.607 40.997
C 25.841 22.819 39.742
H 26.513 22.746 38.904
H 26.192 22.025 40.367
H 24.839 22.567 39.356
C 23.849 25.76  40.731
H 24.307 26.73  40.586
H 23.082 25.949 41.477
C 22.947 25.355 39.513
H 23.201 24.372 39.171
H 21.922 25.239 39.864
C 23.071 26.354 38.352
O 23.985 27.093 38.12 
O 22.009 26.246 37.543
N 29.989 25.338 42.051
C 29.731 24.77  40.854
C 30.906 24.47  40.191
C 31.995 24.997 40.918
C 31.339 25.443 42.189
C 30.988 23.801 38.795
H 31.863 23.226 38.591
H 30.155 23.047 38.618
H 30.913 24.509 37.963
C 33.432 25.125 40.532
H 34.126 25.054 41.345
C 33.966 25.413 39.296
H 33.311 25.507 38.465
H 35.075 25.444 39.133
N 30.07  26.655 44.651
C 31.421 26.684 44.386
C 32.152 27.286 45.426
C 31.245 27.721 46.319
C 29.972 27.206 45.894
C 33.628 27.611 45.345
H 34.032 28.031 46.261
H 34.145 26.684 45.058
H 33.83  28.373 44.592
C 31.479 28.577 47.481
H 30.925 28.235 48.348
H 32.535 28.59  47.828
C 31.102 30.015 47.214
H 31.396 30.62  48.055
H 31.57  30.377 46.261
H 30.036 29.889 47.168
N 27.327 26.312 44.986
C 27.515 26.916 46.168
C 26.288 26.971 46.853
C 25.311 26.589 45.954
C 25.981 26.203 44.835
C 26.04  27.441 48.265
H 26.201 28.554 48.345
H 25.043 27.159 48.496
H 26.664 26.944 48.952
C 23.873 26.455 45.744
O 22.952 26.634 46.52 
C 23.679 25.91  44.312
H 23.058 26.649 43.812
C 22.948 24.569 44.474
O 23.482 23.49  44.771
O 21.58  24.788 44.267
C 20.872 23.456 44.212
H 21.079 22.797 43.339
H 21.144 22.884 45.083
H 19.803 23.7   44.194
C 22.231 26.791 36.195
H 23.01  26.261 35.635
H 22.241 27.897 36.21 
C 20.956 26.401 35.53 
H 20.926 25.359 35.352
C 19.9   27.085 35.065
C 19.722 28.564 35.223
H 19.568 28.705 34.138
H 18.806 28.804 35.813
H 20.49  29.095 35.717
C 18.719 26.404 34.406
H 18.927 25.294 34.377
H 18.768 26.765 33.351
C 17.402 26.542 35.098
H 16.974 27.478 34.973
H 17.633 26.513 36.197
C 16.49  25.412 34.6  
H 16.314 24.771 35.443
H 16.866 24.742 33.795
C 15.086 25.882 34.031
H 14.725 26.669 34.762
C 14.064 24.697 34.093
H 13.15  25.051 33.616
H 14.451 23.791 33.567
H 13.775 24.486 35.104
C 15.143 26.452 32.613
H 15.982 27.19  32.686
H 14.219 26.944 32.394
C 15.712 25.637 31.401
H 15.835 24.58  31.613
H 16.736 25.864 31.314
C 14.999 25.92  30.117
H 15.618 26.609 29.542
H 14.098 26.513 30.406
C 14.565 24.655 29.315
H 14.043 23.975 30.01 
C 15.782 23.927 28.656
H 16.351 24.624 27.957
H 16.401 23.481 29.406
H 15.484 23.081 28.058
C 13.544 25.117 28.193
H 13.942 25.9   27.436
H 12.707 25.675 28.779
C 12.849 24.046 27.356
H 11.771 24.037 27.587
H 13.327 23.081 27.521
C 13.072 24.147 25.828
H 14.112 23.971 25.643
H 12.961 25.196 25.578
C 12.301 23.094 24.986
H 11.242 23.318 25.318
C 12.622 21.627 25.188
H 12.437 21.407 26.247
H 11.763 21.064 24.798
H 13.603 21.303 24.818
C 12.366 23.371 23.486
H 11.706 22.601 23.05 
H 12.002 24.385 23.206
H 13.354 23.2   23.048
