137

Mg 22.159 31.458 35.368
C 21.064 29.658 38.145
C 18.921 31.597 34.364
H 17.896 31.661 33.94 
C 23.214 33.038 32.688
H 23.614 33.65  31.809
C 25.459 30.878 36.312
H 26.47  30.553 36.582
N 20.207 30.618 36.142
C 19.99  29.952 37.25 
C 18.468 29.639 37.486
H 18.272 28.544 37.627
C 17.753 30.309 36.236
H 17.106 31.057 36.688
C 19.031 30.894 35.571
C 16.974 29.329 35.329
H 16.574 29.889 34.462
H 17.385 28.376 35.131
H 16.005 29.118 35.842
C 17.849 30.196 38.866
H 18.333 31.179 38.979
H 18.274 29.677 39.774
C 16.319 30.11  38.878
H 15.834 29.622 38.025
H 16.006 29.549 39.751
C 15.484 31.318 39.151
O 15.024 31.582 40.262
O 15.213 32.    37.983
N 21.214 32.303 33.893
C 19.875 32.311 33.616
C 19.613 33.13  32.407
C 20.852 33.591 31.939
C 21.841 32.984 32.855
C 18.299 33.464 31.798
H 18.23  33.511 30.708
H 17.519 32.777 32.164
H 17.989 34.388 32.147
C 21.154 34.388 30.658
H 22.11  34.095 30.208
C 20.392 35.329 29.977
H 19.463 35.665 30.459
H 20.696 35.859 29.072
N 24.022 31.887 34.604
C 24.247 32.532 33.486
C 25.683 32.674 33.23 
C 26.363 32.032 34.308
C 25.28  31.536 35.121
C 26.33  33.211 31.945
H 25.783 32.815 31.068
H 26.346 34.337 31.976
H 27.334 32.805 31.787
C 27.864 31.785 34.466
H 28.056 30.71  34.556
H 28.471 32.165 33.607
C 28.485 32.315 35.771
H 28.973 31.555 36.338
H 29.173 33.123 35.657
H 27.587 32.706 36.339
N 23.12  30.505 36.91 
C 24.453 30.407 37.268
C 24.607 29.756 38.517
C 23.285 29.472 38.91 
C 22.45  29.886 37.922
C 25.888 29.454 39.228
H 26.659 30.237 39.183
H 25.727 29.399 40.272
H 26.332 28.469 38.947
C 22.521 28.851 39.93 
O 22.809 28.325 40.948
C 21.05  28.883 39.432
H 20.43  29.185 40.249
C 20.8   27.44  39.108
O 21.352 26.79  38.223
O 19.897 26.977 39.943
C 19.517 25.635 39.864
H 18.506 25.563 40.119
H 19.559 25.218 38.852
H 20.141 24.988 40.496
C 14.291 33.15  38.089
H 14.707 33.939 38.73 
H 13.301 32.93  38.388
C 14.071 33.629 36.699
H 13.061 33.425 36.353
C 14.841 34.421 35.995
C 16.217 34.919 36.481
H 16.308 35.881 36.08 
H 16.305 35.175 37.553
H 17.05  34.232 36.13 
C 14.407 34.832 34.63 
H 13.705 34.188 34.187
H 15.166 34.766 33.855
C 13.633 36.109 34.487
H 13.703 36.708 35.366
H 12.617 35.807 34.531
C 13.958 37.053 33.268
H 13.047 37.068 32.705
H 14.757 36.677 32.662
C 14.457 38.559 33.636
H 13.886 38.89  34.536
C 14.133 39.584 32.562
H 14.748 39.358 31.694
H 13.009 39.621 32.335
H 14.407 40.596 32.809
C 15.953 38.561 34.182
H 15.819 38.002 35.165
H 16.25  39.65  34.288
C 17.119 37.879 33.421
H 16.87  37.707 32.329
H 17.327 36.925 33.973
C 18.552 38.635 33.546
H 19.298 38.055 34.11 
H 18.468 39.505 34.142
C 19.203 38.976 32.25 
H 18.622 38.576 31.437
C 20.492 38.243 32.069
H 20.886 38.41  31.035
H 21.195 38.635 32.787
H 20.277 37.187 32.12 
C 19.437 40.555 32.193
H 20.077 40.644 31.251
H 20.028 40.886 33.027
C 18.157 41.442 32.067
H 17.881 41.837 33.035
H 17.244 40.834 31.803
C 18.319 42.567 31.005
H 17.681 42.333 30.15 
H 19.326 42.525 30.547
C 17.848 43.937 31.512
H 18.496 44.2   32.399
C 16.354 43.889 31.898
H 16.01  44.865 32.27 
H 15.628 43.605 31.142
H 16.249 43.188 32.705
C 17.959 45.102 30.468
H 17.659 46.005 30.965
H 19.013 45.15  30.168
H 17.334 44.972 29.608
