137

Mg 29.887 29.365 32.393
C 27.945 29.154 35.268
C 27.003 29.926 30.65 
H 26.087 30.122 30.105
C 31.819 30.151 29.774
H 32.373 30.433 28.837
C 32.734 29.279 34.427
H 33.589 29.053 35.029
N 27.783 29.372 32.879
C 27.249 29.343 34.14 
C 25.709 29.581 34.064
H 25.136 28.831 34.634
C 25.464 29.325 32.558
H 24.782 30.062 32.057
C 26.851 29.587 31.97 
C 24.859 27.937 32.202
H 24.755 27.79  31.149
H 25.356 27.059 32.583
H 23.874 27.998 32.617
C 25.232 31.043 34.643
H 25.585 31.967 34.104
H 25.532 31.079 35.671
C 23.717 31.322 34.763
H 23.178 30.444 35.122
H 23.688 32.202 35.361
C 22.855 31.656 33.62 
O 22.716 32.829 33.266
O 22.167 30.604 33.151
N 29.45  29.833 30.518
C 28.238 30.021 29.953
C 28.34  30.421 28.633
C 29.705 30.629 28.437
C 30.417 30.194 29.608
C 27.194 30.686 27.688
H 26.506 31.548 27.958
H 27.556 30.809 26.675
H 26.461 29.744 27.647
C 30.325 30.931 27.102
H 30.046 30.422 26.197
C 31.317 31.913 26.968
H 31.651 32.537 27.781
H 31.678 32.121 25.93 
N 31.959 29.452 32.097
C 32.52  29.81  30.932
C 33.98  29.967 31.151
C 34.218 29.674 32.496
C 32.961 29.49  33.069
C 34.905 30.553 30.106
H 35.396 29.858 29.433
H 34.387 31.358 29.624
H 35.729 31.017 30.589
C 35.6   29.792 33.215
H 35.742 28.904 33.857
H 36.407 29.928 32.447
C 35.715 31.065 34.08 
H 36.708 30.993 34.593
H 35.832 31.901 33.418
H 34.99  31.142 34.77 
N 30.299 29.095 34.458
C 31.505 29.078 35.114
C 31.262 28.909 36.489
C 29.848 28.892 36.573
C 29.315 29.078 35.305
C 32.26  28.901 37.689
H 33.207 28.653 37.408
H 32.315 29.853 38.23 
H 31.931 28.094 38.398
C 28.803 28.759 37.496
O 28.891 28.56  38.697
C 27.502 29.036 36.797
H 27.185 30.005 37.268
C 26.644 27.834 36.976
O 26.93  26.725 36.539
O 25.455 28.128 37.557
C 24.574 26.989 37.721
H 24.809 26.32  38.49 
H 23.673 27.518 37.991
H 24.466 26.488 36.758
C 21.367 31.015 31.99 
H 20.82  31.901 32.24 
H 20.657 30.165 31.815
C 22.252 31.018 30.779
H 22.866 30.146 30.69 
C 22.237 31.801 29.685
C 21.174 32.962 29.432
H 20.232 32.652 28.937
H 20.737 33.503 30.314
H 21.587 33.665 28.758
C 23.405 31.607 28.586
H 24.178 31.077 29.142
H 23.781 32.609 28.571
C 23.191 31.087 27.163
H 22.132 30.815 27.106
H 23.81  30.183 26.975
C 23.613 32.259 26.168
H 24.639 32.157 26.279
H 23.325 33.295 26.527
C 23.297 32.006 24.704
H 23.661 30.955 24.492
C 24.001 32.964 23.677
H 25.08  33.005 23.907
H 23.935 32.559 22.649
H 23.719 33.983 23.77 
C 21.791 31.882 24.486
H 21.495 30.936 24.932
H 21.553 31.719 23.376
C 20.941 33.106 24.907
H 20.661 33.409 23.929
H 21.489 33.946 25.412
C 19.68  32.635 25.728
H 19.874 32.328 26.682
H 19.344 31.845 25.124
C 18.494 33.718 25.825
H 18.328 34.107 24.822
C 18.876 34.851 26.882
H 18.885 34.347 27.827
H 19.825 35.295 26.748
H 18.119 35.571 26.752
C 17.132 33.038 26.195
H 17.152 32.637 27.233
H 16.958 32.157 25.568
C 15.818 34.022 26.066
H 16.021 34.67  25.247
H 15.762 34.517 27.041
C 14.507 33.24  25.774
H 14.654 32.168 25.653
H 14.063 33.68  24.914
C 13.397 33.562 26.777
H 13.849 33.355 27.74 
C 12.224 32.601 26.605
H 12.457 31.525 26.692
H 11.432 32.74  27.369
H 11.831 32.907 25.682
C 12.848 35.004 26.802
H 13.71  35.66  26.904
H 12.531 35.334 25.811
H 12.04  35.083 27.509
