137

Mg 19.554 27.812 30.092
C 21.95  26.675 32.308
C 17.798 29.24  32.658
H 17.317 29.688 33.495
C 17.343 28.724 27.909
H 16.585 28.997 27.206
C 21.202 25.929 27.581
H 21.741 25.425 26.746
N 19.905 27.994 32.28 
C 20.983 27.516 32.969
C 20.846 27.832 34.436
H 20.867 26.875 34.857
C 19.424 28.416 34.584
H 19.524 29.446 34.932
C 19.002 28.645 33.07 
C 18.492 27.669 35.44 
H 18.441 26.621 35.129
H 18.847 27.783 36.394
H 17.484 28.032 35.37 
C 22.054 28.782 34.849
H 21.865 29.797 34.491
H 23.04  28.496 34.514
C 22.305 28.97  36.366
H 21.898 28.088 36.793
H 23.386 29.018 36.489
C 21.704 30.198 37.022
O 22.327 31.133 37.42 
O 20.357 30.185 37.123
N 17.89  28.963 30.238
C 17.308 29.4   31.372
C 16.111 30.184 31.02 
C 16.043 30.117 29.603
C 17.09  29.249 29.191
C 15.2   30.915 31.962
H 15.343 30.696 33.037
H 15.346 32.009 31.936
H 14.158 30.605 31.909
C 15.058 30.712 28.662
H 15.225 30.554 27.583
C 13.854 31.281 28.902
H 13.383 31.243 29.895
H 13.078 31.5   28.125
N 19.302 27.428 28.032
C 18.304 27.949 27.331
C 18.38  27.464 25.966
C 19.581 26.744 25.86 
C 20.105 26.714 27.196
C 17.421 27.826 24.879
H 16.574 28.393 25.203
H 17.943 28.33  24.113
H 17.038 26.866 24.522
C 20.146 26.069 24.572
H 20.263 24.985 24.698
H 19.505 26.167 23.711
C 21.485 26.707 24.19 
H 22.187 26.734 25.073
H 21.953 26.133 23.45 
H 21.342 27.664 23.746
N 21.168 26.522 29.945
C 21.726 25.872 28.869
C 22.819 25.087 29.346
C 22.934 25.445 30.719
C 21.917 26.277 31.022
C 23.781 24.244 28.527
H 24.64  23.832 29.042
H 23.273 23.341 27.991
H 24.364 24.812 27.682
C 23.851 25.251 31.825
O 24.887 24.579 31.877
C 23.183 26.024 32.928
H 23.8   26.832 33.352
C 22.79  25.073 33.978
O 21.788 24.399 34.038
O 23.562 25.29  35.1  
C 23.003 25.067 36.405
H 22.291 25.841 36.753
H 22.668 24.039 36.493
H 23.88  25.163 37.064
C 19.715 31.373 37.732
H 19.961 32.277 37.318
H 19.87  31.373 38.801
C 18.213 31.194 37.569
H 17.848 30.645 38.39 
C 17.456 31.708 36.603
C 17.88  32.418 35.373
H 17.225 32.118 34.6  
H 17.91  33.455 35.576
H 18.858 31.984 35.143
C 15.949 31.522 36.538
H 15.725 30.626 37.147
H 15.614 31.341 35.495
C 15.221 32.759 37.075
H 15.867 33.39  37.671
H 14.466 32.455 37.846
C 14.671 33.71  35.989
H 14.545 33.234 35.067
H 15.359 34.57  35.81 
C 13.196 34.16  36.257
H 13.122 34.299 37.349
C 12.227 33.062 35.841
H 12.234 32.938 34.732
H 12.51  32.154 36.417
H 11.293 33.341 36.351
C 12.983 35.513 35.53 
H 11.92  35.731 35.741
H 13.115 35.325 34.488
C 13.818 36.753 36.01 
H 14.323 36.42  36.865
H 13.312 37.606 36.311
C 14.819 37.21  35.001
H 14.524 38.165 34.599
H 14.992 36.462 34.247
C 16.276 37.379 35.673
H 16.582 36.513 36.26 
C 16.378 38.609 36.581
H 16.289 39.571 36.073
H 15.522 38.52  37.197
H 17.329 38.584 37.099
C 17.372 37.545 34.545
H 18.337 37.926 35.032
H 17.046 38.415 33.878
C 17.665 36.183 33.763
H 16.986 35.429 34.155
H 18.659 35.865 34.028
C 17.604 36.313 32.251
H 18.638 36.238 31.894
H 17.181 37.253 31.977
C 16.837 35.179 31.405
H 15.895 34.967 31.9  
C 17.587 33.838 31.419
H 18.567 34.006 30.916
H 17.75  33.52  32.422
H 17.009 33.101 30.928
C 16.611 35.734 30.024
H 16.003 35.048 29.431
H 16.095 36.713 30.052
H 17.666 35.897 29.615
