137

Mg 28.27  30.992 31.965
C 27.598 27.763 31.16 
C 28.213 31.842 28.688
H 28.195 32.001 27.611
C 28.556 34.212 32.784
H 28.625 35.3   32.975
C 28.288 30.188 35.332
H 28.25  29.857 36.352
N 27.914 29.911 30.151
C 27.621 28.595 30.04 
C 27.572 28.178 28.567
H 28.449 27.638 28.443
C 27.955 29.476 27.841
H 27.062 29.748 27.308
C 27.985 30.494 28.943
C 29.29  29.516 27.111
H 30.094 29.461 27.865
H 29.445 28.691 26.427
H 29.214 30.427 26.547
C 26.333 27.384 28.078
H 25.453 27.985 28.319
H 26.425 26.515 28.606
C 26.388 26.915 26.57 
H 25.317 26.894 26.205
H 26.937 27.543 25.913
C 26.832 25.511 26.3  
O 27.999 25.276 26.052
O 25.858 24.607 26.494
N 28.39  32.712 30.897
C 28.341 32.873 29.583
C 28.404 34.234 29.216
C 28.407 34.941 30.368
C 28.509 33.911 31.421
C 28.452 34.788 27.894
H 28.769 35.764 27.968
H 29.211 34.161 27.362
H 27.484 34.748 27.361
C 28.4   36.437 30.526
H 29.355 36.907 30.236
C 27.518 37.072 31.294
H 26.702 36.564 31.816
H 27.728 38.088 31.546
N 28.393 32.047 33.798
C 28.495 33.38  33.949
C 28.644 33.77  35.406
C 28.583 32.564 36.142
C 28.331 31.514 35.09 
C 28.917 35.196 35.887
H 28.426 35.897 35.21 
H 28.473 35.375 36.954
H 30.032 35.319 35.85 
C 28.777 32.384 37.632
H 29.646 31.768 37.778
H 29.019 33.381 37.99 
C 27.639 31.879 38.385
H 26.874 32.629 38.135
H 27.334 30.888 38.014
H 27.632 31.838 39.496
N 28.026 29.37  33.07 
C 28.155 29.125 34.383
C 27.863 27.749 34.682
C 27.71  27.128 33.456
C 27.788 28.202 32.513
C 27.712 27.079 36.07 
H 28.63  27.317 36.601
H 26.908 27.503 36.593
H 27.583 25.971 35.937
C 27.456 25.843 32.758
O 27.232 24.685 33.156
C 27.405 26.241 31.26 
H 26.563 25.834 30.71 
C 28.527 25.59  30.637
O 29.665 26.1   30.512
O 28.243 24.275 30.226
C 29.393 23.539 29.764
H 29.182 22.503 29.488
H 29.669 23.957 28.82 
H 30.223 23.662 30.407
C 26.343 23.227 26.577
H 26.986 23.075 27.461
H 26.766 22.84  25.66 
C 25.01  22.381 26.618
H 24.549 22.412 27.594
C 24.355 21.696 25.66 
C 24.697 21.599 24.236
H 24.793 20.617 23.882
H 23.957 22.026 23.683
H 25.569 22.175 24.029
C 23.015 21.03  26.075
H 23.    21.037 27.226
H 23.097 20.07  25.744
C 21.681 21.473 25.485
H 21.238 20.561 25.08 
H 21.89  22.216 24.656
C 20.829 22.281 26.478
H 20.51  23.115 25.951
H 21.298 22.565 27.421
C 19.459 21.587 26.894
H 18.982 21.336 25.936
C 18.589 22.583 27.695
H 18.989 22.969 28.663
H 18.424 23.548 27.122
H 17.563 22.245 27.874
C 19.607 20.236 27.628
H 20.1   19.544 26.936
H 18.602 19.968 27.931
C 20.401 20.264 28.943
H 20.034 21.11  29.528
H 21.469 20.377 28.816
C 20.239 18.991 29.682
H 19.7   18.267 29.083
H 19.54  19.245 30.49 
C 21.555 18.346 30.311
H 21.937 19.119 30.959
C 22.624 18.007 29.222
H 22.274 17.286 28.361
H 22.901 18.921 28.685
H 23.408 17.475 29.836
C 21.286 17.157 31.233
H 22.182 16.828 31.785
H 20.977 16.353 30.642
C 20.197 17.451 32.376
H 20.016 18.473 32.576
H 20.677 17.046 33.326
C 18.848 16.775 32.11 
H 18.83  15.837 32.767
H 18.765 16.51  31.077
C 17.484 17.53  32.354
H 17.668 18.478 31.822
C 17.28  17.721 33.86 
H 16.497 18.435 33.983
H 16.937 16.779 34.366
H 18.209 18.079 34.421
C 16.256 16.811 31.727
H 16.078 15.869 32.15 
H 15.417 17.53  31.912
H 16.524 16.713 30.668
