137

Mg 36.807 27.775 34.956
C 33.354 28.149 34.969
C 36.528 25.361 32.513
H 36.396 24.588 31.749
C 40.183 27.346 34.964
H 41.2   27.146 35.06 
C 37.082 30.368 37.164
H 37.26  31.086 37.947
N 35.119 26.965 33.791
C 33.793 27.254 33.968
C 32.933 26.487 33.001
H 32.065 26.012 33.416
C 33.892 25.426 32.382
H 33.934 25.483 31.302
C 35.262 25.975 32.86 
C 33.655 23.951 32.853
H 34.495 23.349 32.478
H 33.521 23.885 33.953
H 32.684 23.657 32.468
C 32.479 27.399 31.837
H 33.26  27.696 31.259
H 32.059 28.229 32.41 
C 31.383 26.905 30.871
H 31.659 27.08  29.765
H 31.32  25.837 30.978
C 29.943 27.433 31.159
O 29.111 26.854 31.857
O 29.593 28.565 30.427
N 38.146 26.543 33.833
C 37.823 25.587 32.899
C 38.986 24.783 32.556
C 40.049 25.383 33.191
C 39.527 26.461 34.096
C 38.926 23.635 31.477
H 39.784 22.969 31.482
H 38.006 22.973 31.687
H 38.918 23.957 30.417
C 41.458 25.09  33.042
H 42.048 25.283 33.899
C 42.035 24.444 31.986
H 41.494 24.091 31.039
H 43.131 24.224 32.003
N 38.409 28.631 35.903
C 39.683 28.244 35.854
C 40.497 28.982 36.749
C 39.583 29.95  37.332
C 38.242 29.691 36.782
C 41.963 28.738 37.08 
H 42.204 29.276 38.003
H 42.295 27.681 37.165
H 42.583 29.19  36.254
C 40.036 30.955 38.398
H 39.176 31.105 39.106
H 40.993 30.741 38.745
C 40.242 32.291 37.709
H 41.13  32.799 38.119
H 40.135 32.219 36.61 
H 39.351 32.933 37.987
N 35.508 29.034 35.99 
C 35.755 30.031 36.811
C 34.496 30.692 37.119
C 33.533 29.939 36.538
C 34.211 28.986 35.765
C 34.368 32.002 37.9  
H 34.592 31.774 38.968
H 35.143 32.639 37.523
H 33.359 32.485 37.877
C 32.096 29.816 36.386
O 31.168 30.391 36.897
C 31.927 28.618 35.281
H 31.286 29.173 34.521
C 31.138 27.59  35.876
O 31.519 26.893 36.821
O 30.064 27.208 35.048
C 29.615 25.875 35.29 
H 28.753 25.566 34.707
H 30.32  25.109 35.012
H 29.292 25.74  36.351
C 28.215 28.92  30.386
H 27.864 29.069 31.42 
H 27.613 28.062 30.05 
C 28.069 30.208 29.503
H 28.425 30.167 28.496
C 27.84  31.447 29.89 
C 27.481 31.91  31.322
H 28.329 32.236 31.909
H 26.727 32.746 31.227
H 26.954 31.08  31.791
C 28.218 32.476 28.863
H 29.192 32.179 28.37 
H 28.435 33.436 29.371
C 27.123 32.674 27.756
H 26.478 33.517 27.933
H 26.483 31.756 27.697
C 27.751 32.777 26.32 
H 28.844 33.049 26.338
H 27.351 33.727 26.056
C 27.279 31.682 25.282
H 26.208 31.438 25.379
C 28.083 30.406 25.627
H 28.122 29.726 24.831
H 29.1   30.635 26.015
H 27.629 29.802 26.4  
C 27.585 32.105 23.829
H 27.329 31.214 23.127
H 28.609 32.333 23.758
C 26.736 33.281 23.352
H 27.291 34.167 23.425
H 25.968 33.467 24.071
C 26.064 33.122 21.924
H 25.005 32.921 21.945
H 26.597 32.34  21.404
C 26.303 34.372 20.982
H 27.373 34.547 20.889
C 25.524 35.615 21.647
H 25.862 36.476 21.071
H 24.504 35.491 21.564
H 25.824 35.752 22.658
C 25.929 34.124 19.45 
H 25.754 35.119 19.015
H 24.991 33.55  19.454
C 27.047 33.326 18.587
H 26.618 32.256 18.531
H 27.992 33.296 19.035
C 27.247 33.865 17.216
H 28.304 34.031 17.257
H 26.764 34.8   17.079
C 26.865 32.937 16.016
H 25.827 32.708 16.1  
C 27.659 31.654 15.932
H 27.184 31.121 15.09 
H 28.744 31.933 15.864
H 27.681 31.103 16.875
C 27.094 33.775 14.736
H 26.742 33.319 13.797
H 26.585 34.688 14.819
H 28.212 33.938 14.509
