137

Mg 20.8   18.17  30.767
C 24.033 17.195 29.769
C 21.829 21.459 30.518
H 22.088 22.48  30.457
C 17.668 19.176 31.363
H 16.673 19.546 31.691
C 19.855 14.932 30.665
H 19.518 13.883 30.392
N 22.746 19.201 30.166
C 23.908 18.606 29.82 
C 24.987 19.681 29.567
H 25.777 19.471 30.263
C 24.315 21.054 29.989
H 24.087 21.712 29.149
C 22.896 20.54  30.331
C 25.016 21.876 31.116
H 25.948 22.285 30.976
H 24.375 22.668 31.488
H 25.157 21.214 31.985
C 25.536 19.633 28.065
H 24.78  20.135 27.549
H 25.608 18.599 27.803
C 26.887 20.382 27.796
H 27.196 20.89  28.73 
H 27.557 19.733 27.319
C 26.686 21.6   26.907
O 27.423 21.914 26.011
O 25.605 22.364 27.312
N 19.874 20.066 31.021
C 20.48  21.294 30.865
C 19.424 22.318 30.84 
C 18.215 21.652 31.145
C 18.559 20.201 31.21 
C 19.648 23.759 30.494
H 18.832 24.393 30.597
H 20.393 24.018 31.27 
H 20.11  23.754 29.547
C 16.807 22.188 31.216
H 16.146 21.928 32.058
C 16.397 23.129 30.305
H 16.754 23.484 29.309
H 15.378 23.427 30.454
N 19.109 17.191 31.147
C 17.918 17.787 31.448
C 16.968 16.712 31.709
C 17.559 15.451 31.533
C 18.905 15.842 31.149
C 15.479 17.104 32.079
H 15.077 17.757 31.313
H 14.872 16.239 32.035
H 15.531 17.559 33.083
C 17.14  13.991 31.596
H 17.142 13.571 30.618
H 17.843 13.404 32.234
C 15.752 13.659 32.185
H 15.576 12.622 32.216
H 15.757 14.148 33.217
H 14.888 14.164 31.691
N 21.677 16.356 30.181
C 21.21  15.089 30.32 
C 22.21  14.142 29.96 
C 23.383 14.919 29.847
C 23.009 16.251 29.886
C 22.02  12.605 29.937
H 21.717 12.384 28.936
H 22.987 12.259 30.072
H 21.361 12.343 30.718
C 24.808 14.877 29.596
O 25.593 13.965 29.372
C 25.222 16.372 29.497
H 25.596 16.578 28.481
C 26.391 16.76  30.441
O 26.281 16.889 31.699
O 27.519 17.142 29.765
C 28.707 17.628 30.504
H 29.264 16.817 30.991
H 29.346 18.234 29.845
H 28.485 18.306 31.273
C 25.383 23.608 26.574
H 24.994 23.468 25.579
H 26.295 24.157 26.607
C 24.378 24.524 27.271
H 24.622 24.674 28.326
C 23.258 25.078 26.849
C 22.537 24.746 25.479
H 23.    23.943 24.892
H 21.542 24.466 25.812
H 22.427 25.72  24.884
C 22.435 25.798 27.825
H 22.78  25.756 28.839
H 21.401 25.486 27.921
C 22.533 27.342 27.528
H 23.411 27.523 26.854
H 22.544 27.878 28.438
C 21.353 27.773 26.623
H 20.628 26.923 26.547
H 21.663 28.127 25.658
C 20.472 29.022 27.151
H 21.084 29.83  27.568
C 19.547 28.531 28.33 
H 18.702 28.132 27.787
H 19.975 27.764 28.841
H 19.472 29.377 29.017
C 19.734 29.82  25.945
H 18.955 29.229 25.464
H 20.473 29.898 25.142
C 19.234 31.262 26.332
H 19.703 31.947 25.661
H 19.578 31.543 27.296
C 17.697 31.44  26.234
H 17.199 30.529 26.561
H 17.418 31.762 25.25 
C 17.126 32.597 27.133
H 17.735 33.48  26.91 
C 17.187 32.255 28.655
H 16.784 31.218 28.811
H 18.219 32.412 28.92 
H 16.562 32.974 29.209
C 15.618 32.867 26.841
H 15.    32.296 27.558
H 15.315 32.518 25.866
C 15.077 34.319 26.968
H 15.892 35.045 27.083
H 14.521 34.416 27.905
C 14.177 34.689 25.829
H 13.192 34.7   26.219
H 14.16  34.01  24.979
C 14.358 36.164 25.279
H 14.288 36.754 26.17 
C 13.299 36.601 24.316
H 13.35  37.71  24.207
H 13.389 36.106 23.328
H 12.302 36.339 24.78 
C 15.649 36.377 24.525
H 15.703 35.753 23.595
H 15.645 37.387 24.313
H 16.591 36.16  25.087
