137

Mg 20.326 24.911 36.479
C 19.222 21.846 37.144
C 21.282 23.913 33.339
H 21.611 23.559 32.373
C 21.592 27.99  35.829
H 22.017 28.934 35.74 
C 19.523 25.91  39.732
H 19.247 26.238 40.777
N 20.141 23.14  35.415
C 19.673 21.964 35.865
C 19.492 20.922 34.772
H 19.784 19.971 35.175
C 20.485 21.493 33.668
H 20.005 21.618 32.701
C 20.653 22.958 34.186
C 21.71  20.532 33.535
H 22.333 20.735 34.368
H 21.374 19.484 33.529
H 22.168 20.783 32.558
C 18.046 20.685 34.282
H 17.83  21.65  33.828
H 17.328 20.504 35.084
C 17.817 19.508 33.295
H 18.693 18.871 33.288
H 17.097 18.831 33.74 
C 17.457 19.847 31.884
O 17.826 20.884 31.314
O 16.822 18.743 31.343
N 21.201 25.819 34.867
C 21.483 25.239 33.626
C 22.216 26.188 32.765
C 22.279 27.376 33.497
C 21.692 27.108 34.806
C 22.771 25.842 31.371
H 22.306 26.454 30.514
H 23.797 26.166 31.449
H 22.666 24.782 31.222
C 22.91  28.678 33.13 
H 23.241 29.266 33.972
C 23.093 29.165 31.863
H 22.794 28.614 30.989
H 23.639 30.069 31.719
N 20.34  26.713 37.556
C 20.919 27.874 37.069
C 20.781 28.913 38.105
C 20.318 28.342 39.226
C 20.074 26.922 38.895
C 21.214 30.38  37.888
H 20.34  31.148 37.757
H 21.662 30.71  38.787
H 22.04  30.582 37.195
C 20.182 28.95  40.662
H 20.48  28.139 41.399
H 20.868 29.765 40.8  
C 18.826 29.402 40.986
H 18.823 29.926 41.915
H 18.551 30.218 40.262
H 18.159 28.573 40.913
N 19.427 24.122 38.121
C 19.254 24.561 39.426
C 18.736 23.455 40.242
C 18.683 22.378 39.422
C 19.17 22.82 38.16
C 18.275 23.712 41.681
H 17.811 22.819 42.052
H 19.181 24.037 42.233
H 17.498 24.416 41.678
C 18.306 20.977 39.261
O 17.802 20.163 40.03 
C 18.698 20.606 37.856
H 17.827 20.157 37.435
C 19.685 19.493 37.929
O 20.877 19.6   38.197
O 19.091 18.252 37.789
C 19.978 17.06  37.736
H 20.63  17.056 36.866
H 20.496 17.036 38.638
H 19.372 16.179 37.669
C 16.772 18.635 29.889
H 17.738 18.394 29.518
H 16.469 19.518 29.427
C 15.821 17.463 29.56 
H 16.167 16.468 29.513
C 14.533 17.53  29.305
C 13.646 18.767 29.313
H 12.965 18.868 28.467
H 13.131 18.674 30.292
H 14.249 19.697 29.285
C 13.796 16.249 28.954
H 14.218 15.653 28.113
H 12.812 16.371 28.633
C 13.681 15.203 30.135
H 13.346 15.759 31.017
H 14.654 14.872 30.304
C 12.773 14.054 29.894
H 13.22  13.224 29.387
H 11.924 14.306 29.236
C 11.991 13.513 31.178
H 12.634 13.004 31.884
C 11.064 12.427 30.696
H 11.654 11.562 30.242
H 10.351 12.072 31.502
H 10.537 12.802 29.868
C 11.211 14.736 31.916
H 11.923 15.34  32.508
H 10.513 14.286 32.577
C 10.322 15.7   31.057
H 10.318 15.253 30.058
H 10.772 16.679 30.847
C  8.876 15.867 31.514
H  8.632 15.404 32.536
H  8.254 15.301 30.785
C  8.319 17.337 31.446
H  8.693 17.699 30.476
C  8.939 18.221 32.561
H  8.383 19.141 32.682
H  8.906 17.699 33.534
H  9.908 18.555 32.346
C  6.743 17.484 31.509
H  6.433 17.268 32.516
H  6.375 16.642 30.869
C  6.191 18.884 30.908
H  7.023 19.48  30.547
H  5.762 19.41  31.727
C  5.009 18.656 29.907
H  4.143 19.193 30.262
H  4.716 17.674 29.905
C  5.304 19.017 28.45 
H  5.62  20.119 28.632
C  3.871 19.131 27.771
H  3.256 18.194 27.747
H  3.354 19.979 28.288
H  4.005 19.423 26.678
C  6.28  18.076 27.718
H  6.684 18.533 26.884
H  7.059 17.783 28.458
H  5.703 17.207 27.312
