137

Mg 26.552 32.163 40.   
C 25.14  28.931 40.372
C 23.452 33.332 39.22 
H 22.521 33.811 38.917
C 27.826 35.255 40.134
H 28.191 36.247 40.054
C 29.609 30.783 41.187
H 30.592 30.351 41.349
N 24.534 31.225 39.789
C 24.22  29.94  40.073
C 22.71  29.669 39.888
H 22.534 29.079 39.013
C 22.218 31.076 39.468
H 21.629 31.466 40.316
C 23.437 31.967 39.477
C 21.491 31.042 38.176
H 20.992 31.993 38.004
H 22.211 30.792 37.405
H 20.707 30.274 38.198
C 22.055 28.969 41.145
H 22.308 29.523 42.006
H 22.413 27.941 41.232
C 20.519 28.764 40.958
H 20.288 28.742 39.916
H 20.173 27.763 41.284
C 19.471 29.617 41.476
O 19.079 29.58  42.633
O 19.046 30.583 40.572
N 25.784 33.998 39.7  
C 24.514 34.302 39.29 
C 24.482 35.67  38.997
C 25.715 36.266 39.417
C 26.521 35.155 39.838
C 23.296 36.342 38.333
H 22.41  35.96  38.741
H 23.4   37.422 38.547
H 23.356 36.223 37.29 
C 26.203 37.671 39.433
H 27.25  37.831 39.058
C 25.451 38.643 39.877
H 24.508 38.409 40.278
H 25.784 39.685 39.874
N 28.435 32.837 40.499
C 28.784 34.193 40.337
C 30.287 34.266 40.489
C 30.732 33.061 41.032
C 29.602 32.13  40.912
C 31.043 35.619 40.385
H 31.011 35.967 39.391
H 30.517 36.276 41.065
H 32.078 35.593 40.771
C 32.135 32.734 41.55 
H 32.614 31.965 40.918
H 32.759 33.613 41.496
C 32.231 32.324 43.033
H 33.291 32.189 43.29 
H 31.922 33.141 43.74 
H 31.606 31.458 43.211
N 27.288 30.297 40.564
C 28.503 29.896 40.977
C 28.583 28.524 41.239
C 27.285 28.088 40.948
C 26.526 29.197 40.484
C 29.679 27.674 41.722
H 30.631 28.054 41.442
H 29.767 27.784 42.8  
H 29.594 26.626 41.388
C 26.423 26.983 41.016
O 26.599 25.788 41.22 
C 24.937 27.473 40.682
H 24.353 27.193 41.587
C 24.451 26.717 39.471
O 24.742 26.994 38.272
O 23.832 25.565 39.792
C 23.577 24.653 38.664
H 23.23  23.662 39.112
H 22.857 25.158 38.039
H 24.462 24.394 38.049
C 17.896 31.212 41.054
H 17.901 31.643 42.035
H 17.039 30.586 41.117
C 17.654 32.351 40.062
H 17.172 31.995 39.174
C 18.07  33.609 40.055
C 18.724 34.211 41.283
H 17.993 34.486 42.025
H 19.453 33.379 41.574
H 19.258 35.082 40.965
C 17.765 34.55  38.873
H 16.854 34.135 38.371
H 18.612 34.329 38.244
C 17.721 36.028 39.05 
H 18.699 36.474 39.405
H 17.107 36.147 39.987
C 17.142 36.807 37.899
H 16.317 37.407 38.301
H 16.67  36.156 37.233
C 18.01  37.966 37.314
H 18.307 38.435 38.203
C 17.242 39.064 36.534
H 17.853 39.901 36.227
H 16.714 38.65  35.65 
H 16.491 39.479 37.249
C 19.327 37.545 36.547
H 19.989 36.96  37.152
H 19.896 38.441 36.358
C 19.081 36.681 35.27 
H 17.999 36.476 35.141
H 19.633 35.731 35.367
C 19.555 37.387 34.019
H 20.534 37.865 34.082
H 18.94  38.234 33.802
C 19.432 36.606 32.622
H 20.01  35.683 32.644
C 20.044 37.362 31.47 
H 20.318 36.716 30.672
H 19.376 38.18  31.201
H 20.98  37.815 31.84 
C 17.979 36.23  32.206
H 17.42  37.151 32.021
H 17.461 35.854 33.108
C 17.806 35.203 31.035
H 17.214 34.401 31.433
H 18.737 34.771 30.56 
C 17.007 35.769 29.895
H 17.087 36.834 29.778
H 15.953 35.585 30.101
C 17.267 35.082 28.527
H 18.273 35.178 28.296
C 16.451 35.611 27.357
H 16.729 35.164 26.354
H 15.362 35.243 27.413
H 16.58  36.657 27.287
C 17.033 33.59  28.524
H 17.066 33.178 27.482
H 17.762 33.138 29.235
H 15.991 33.528 28.894
