137

Mg 23.144 28.747 38.594
C 21.013 26.111 39.675
C 24.838 26.351 36.716
H 25.453 25.608 36.15 
C 24.912 31.17  37.29 
H 25.42  31.966 36.765
C 22.161 30.59  41.153
H 21.936 31.257 41.993
N 22.777 26.548 38.078
C 21.846 25.7   38.616
C 21.799 24.403 37.879
H 21.719 23.587 38.641
C 23.265 24.317 37.291
H 23.255 24.053 36.185
C 23.699 25.853 37.323
C 24.263 23.366 37.936
H 24.151 23.44  39.041
H 23.901 22.437 37.624
H 25.329 23.567 37.643
C 20.646 24.367 36.807
H 20.931 25.053 35.975
H 19.763 24.759 37.359
C 20.357 22.958 36.219
H 20.86  22.197 36.785
H 19.31  22.721 36.336
C 20.76  22.744 34.741
O 21.9   23.028 34.341
O 19.746 22.191 33.944
N 24.685 28.721 37.229
C 25.29  27.671 36.567
C 26.379 28.136 35.86 
C 26.393 29.544 35.913
C 25.293 29.87  36.86 
C 27.337 27.195 35.03 
H 27.531 26.252 35.511
H 26.918 26.999 34.109
H 28.348 27.72  34.829
C 27.168 30.548 35.1  
H 27.333 31.512 35.665
C 27.77  30.244 33.958
H 27.546 29.416 33.366
H 28.344 31.081 33.449
N 23.514 30.638 39.145
C 24.16  31.53  38.434
C 24.255 32.756 39.201
C 23.479 32.59  40.27 
C 22.974 31.277 40.225
C 25.199 33.888 38.868
H 26.208 33.462 38.87 
H 24.949 34.396 37.981
H 25.158 34.765 39.6  
C 23.242 33.605 41.358
H 23.492 33.11  42.323
H 23.936 34.415 41.308
C 21.819 34.128 41.335
H 21.452 34.679 42.194
H 21.579 34.63  40.4  
H 21.122 33.26  41.242
N 21.786 28.516 40.009
C 21.558 29.389 41.096
C 20.6   28.802 41.986
C 20.253 27.522 41.437
C 21.027 27.413 40.229
C 20.291 29.256 43.307
H 19.687 28.588 43.841
H 21.215 29.462 43.845
H 19.637 30.099 43.148
C 19.45  26.257 41.542
O 18.646 25.859 42.336
C 19.951 25.35  40.42 
H 19.116 25.038 39.799
C 20.541 24.173 41.129
O 21.671 24.165 41.56 
O 19.812 23.05  40.95 
C 20.6   21.794 40.987
H 21.113 21.45  41.947
H 19.791 21.073 40.727
H 21.433 21.725 40.237
C 20.111 22.073 32.539
H 21.094 21.618 32.558
H 20.022 23.076 32.189
C 19.266 21.148 31.743
H 19.657 20.108 31.869
C 18.166 21.509 31.002
C 17.417 22.817 30.869
H 16.314 22.613 30.983
H 17.806 23.427 31.757
H 17.625 23.304 29.884
C 17.509 20.378 30.168
H 18.199 19.542 30.118
H 17.551 20.737 29.177
C 16.157 19.65  30.526
H 16.073 19.407 31.602
H 16.185 18.66  30.066
C 14.969 20.328 29.822
H 14.826 21.323 30.195
H 14.143 19.703 30.207
C 15.035 20.382 28.272
H 15.853 21.074 27.928
C 13.762 21.052 27.696
H 12.884 20.495 27.814
H 13.582 22.03  28.171
H 13.887 21.177 26.591
C 15.226 19.058 27.51 
H 16.276 18.69  27.756
H 15.133 19.367 26.467
C 14.213 18.002 27.812
H 13.492 18.116 26.927
H 13.596 18.067 28.749
C 14.776 16.565 27.764
H 14.973 16.229 28.804
H 15.742 16.71  27.329
C 14.003 15.462 27.004
H 13.743 15.784 26.021
C 12.679 15.163 27.764
H 12.876 14.856 28.763
H 12.202 16.129 27.795
H 12.023 14.503 27.21 
C 14.807 14.221 26.787
H 14.114 13.413 26.825
H 15.381 13.991 27.705
C 15.898 14.076 25.651
H 16.878 13.991 26.066
H 15.777 14.981 24.989
C 15.715 12.816 24.745
H 15.697 13.101 23.663
H 14.768 12.253 24.897
C 16.824 11.751 24.835
H 17.799 12.285 24.88 
C 16.788 10.881 23.63 
H 15.981 10.142 23.728
H 16.718 11.479 22.683
H 17.7   10.23  23.611
C 16.725 10.918 26.104
H 16.819 11.618 26.892
H 15.868 10.19  26.178
H 17.636 10.369 26.162
