137

Mg 35.746 34.307 35.105
C 32.404 35.147 34.867
C 35.287 32.238 32.371
H 35.197 31.505 31.605
C 39.035 33.576 35.099
H 40.084 33.246 35.23 
C 36.09  36.628 37.51 
H 36.188 37.279 38.376
N 34.123 33.874 33.713
C 32.854 34.378 33.792
C 31.936 33.81  32.651
H 30.984 33.431 33.062
C 32.757 32.673 32.021
H 32.781 32.905 30.964
C 34.13  32.933 32.738
C 32.253 31.213 32.155
H 31.322 31.278 31.6  
H 32.977 30.534 31.728
H 32.07  30.931 33.198
C 31.602 34.978 31.714
H 32.45  35.35  31.157
H 31.292 35.773 32.357
C 30.441 34.917 30.725
H 30.839 34.793 29.717
H 29.862 34.069 30.978
C 29.445 35.976 30.867
O 29.562 37.111 30.481
O 28.377 35.628 31.709
N 36.999 33.039 34.052
C 36.607 32.308 32.952
C 37.64  31.456 32.596
C 38.741 31.835 33.342
C 38.304 32.909 34.184
C 37.574 30.514 31.516
H 38.362 29.782 31.602
H 36.651 30.01  31.508
H 37.722 30.921 30.506
C 40.123 31.352 33.361
H 40.602 31.374 34.35 
C 40.718 30.82  32.287
H 40.229 30.765 31.329
H 41.752 30.53  32.219
N 37.287 34.978 36.094
C 38.595 34.609 35.962
C 39.418 35.351 36.88 
C 38.574 36.269 37.491
C 37.25  36.005 37.038
C 40.951 35.112 37.004
H 41.125 34.074 37.106
H 41.407 35.41  36.093
H 41.479 35.665 37.783
C 38.996 37.325 38.515
H 38.364 37.332 39.359
H 40.007 37.154 38.746
C 38.835 38.736 38.002
H 37.817 39.006 37.7  
H 39.155 39.523 38.686
H 39.437 38.786 37.047
N 34.588 35.596 36.062
C 34.801 36.494 37.058
C 33.573 37.179 37.468
C 32.595 36.549 36.622
C 33.234 35.677 35.8  
C 33.349 38.146 38.592
H 32.303 38.369 38.57 
H 33.496 37.607 39.593
H 33.959 39.014 38.546
C 31.201 36.557 36.288
O 30.323 37.255 36.718
C 30.967 35.59  35.113
H 30.647 36.272 34.376
C 30.043 34.608 35.627
O 30.365 33.841 36.525
O 28.845 34.526 34.99 
C 28.052 33.292 35.021
H 27.465 32.994 35.953
H 27.157 33.416 34.243
H 28.693 32.454 34.861
C 27.654 36.765 32.183
H 27.261 37.393 31.39 
H 28.399 37.424 32.536
C 26.509 36.308 33.101
H 26.861 36.148 34.144
C 25.225 36.08  32.795
C 24.538 36.085 31.407
H 24.018 37.07  31.324
H 25.376 36.041 30.714
H 23.766 35.365 31.286
C 24.263 35.449 33.803
H 24.75  35.293 34.694
H 24.134 34.406 33.51 
C 22.937 36.19  33.973
H 22.7   36.727 32.989
H 23.124 36.919 34.699
C 21.8   35.251 34.409
H 21.308 35.837 35.182
H 22.243 34.274 34.731
C 20.693 35.066 33.3  
H 21.133 35.092 32.258
C 19.746 36.338 33.197
H 19.057 36.285 32.31 
H 19.143 36.31  34.095
H 20.38  37.234 33.151
C 19.967 33.712 33.396
H 20.763 32.957 33.407
H 19.298 33.566 32.506
C 19.147 33.63  34.705
H 18.098 34.027 34.63 
H 19.465 34.333 35.458
C 18.961 32.249 35.321
H 19.224 31.458 34.561
H 17.869 32.048 35.406
C 19.627 31.856 36.738
H 19.214 32.594 37.396
C 21.18  31.978 36.488
H 21.343 33.017 36.224
H 21.789 31.698 37.412
H 21.56  31.348 35.658
C 19.387 30.323 37.086
H 19.966 30.047 37.957
H 19.822 29.68  36.234
C 18.004 29.833 37.537
H 17.438 30.713 37.857
H 18.059 29.044 38.292
C 17.212 29.209 36.37 
H 17.892 29.03  35.512
H 16.468 29.94  36.029
C 16.383 27.895 36.607
H 15.556 28.052 37.26 
C 17.161 26.742 37.271
H 16.508 25.905 37.272
H 18.105 26.544 36.771
H 17.316 26.934 38.385
C 15.7   27.422 35.219
H 14.984 26.633 35.384
H 15.085 28.256 34.735
H 16.527 26.99  34.535
