137

Mg 22.823 31.465 35.449
C 21.625 29.782 38.241
C 19.668 31.27  34.065
H 18.677 31.089 33.557
C 23.965 33.095 32.798
H 24.318 33.636 31.963
C 26.022 31.125 36.731
H 27.003 30.927 37.153
N 20.911 30.763 36.136
C 20.605 30.139 37.309
C 19.173 29.594 37.422
H 19.152 28.546 37.469
C 18.63  30.084 35.984
H 17.847 30.82  36.156
C 19.846 30.712 35.311
C 18.038 28.791 35.294
H 17.988 28.93  34.23 
H 18.728 27.981 35.502
H 17.048 28.558 35.713
C 18.308 30.132 38.603
H 18.123 31.16  38.262
H 18.886 30.312 39.53 
C 16.991 29.469 38.941
H 16.972 28.502 38.396
H 16.911 29.209 40.014
C 15.666 30.161 38.507
O 14.766 30.374 39.272
O 15.696 30.636 37.206
N 21.908 32.016 33.61 
C 20.589 31.987 33.314
C 20.362 32.662 32.035
C 21.675 33.11  31.623
C 22.594 32.801 32.667
C 19.125 32.751 31.286
H 18.284 32.138 31.679
H 18.881 33.805 31.287
H 19.385 32.377 30.252
C 22.11  33.862 30.386
H 23.207 33.881 30.165
C 21.274 34.634 29.605
H 20.291 34.868 30.043
H 21.704 35.201 28.811
N 24.7   32.187 34.922
C 24.957 32.799 33.735
C 26.335 33.127 33.754
C 26.89  32.526 34.902
C 25.833 31.91  35.601
C 27.055 33.828 32.641
H 26.789 33.36  31.728
H 26.502 34.763 32.554
H 28.11  34.034 32.905
C 28.34  32.456 35.215
H 28.624 31.484 35.575
H 28.924 32.617 34.276
C 28.884 33.529 36.164
H 28.43  33.308 37.144
H 29.89  33.395 36.46 
H 28.771 34.604 35.815
N 23.682 30.544 37.131
C 24.986 30.503 37.472
C 25.121 29.859 38.803
C 23.768 29.489 39.14 
C 22.987 29.963 38.053
C 26.314 29.787 39.713
H 27.235 29.696 39.099
H 26.425 30.571 40.459
H 26.254 28.878 40.246
C 22.922 28.805 40.094
O 23.179 28.223 41.12 
C 21.522 28.957 39.528
H 20.865 29.469 40.243
C 21.043 27.589 39.222
O 21.057 27.007 38.128
O 20.309 27.077 40.322
C 19.298 26.054 39.869
H 18.616 25.942 40.743
H 18.765 26.487 39.064
H 19.802 25.116 39.549
C 14.572 31.516 36.791
H 14.254 32.191 37.599
H 13.679 31.029 36.534
C 15.197 32.241 35.562
H 14.593 32.102 34.663
C 15.923 33.378 35.573
C 16.786 33.924 36.718
H 16.799 33.149 37.502
H 17.776 33.993 36.268
H 16.389 34.897 37.055
C 15.641 34.307 34.356
H 15.15  33.788 33.607
H 16.666 34.683 34.1  
C 14.691 35.451 34.682
H 14.937 35.721 35.645
H 13.684 35.099 34.441
C 14.861 36.641 33.595
H 13.917 36.831 33.042
H 15.471 36.341 32.786
C 15.566 37.897 34.118
H 14.862 38.136 34.907
C 15.489 38.932 33.099
H 15.81  39.876 33.557
H 16.028 38.508 32.251
H 14.444 39.085 32.768
C 17.006 37.708 34.717
H 16.875 36.906 35.454
H 17.373 38.507 35.413
C 18.159 37.329 33.786
H 17.887 36.681 32.927
H 18.913 36.769 34.367
C 18.942 38.599 33.332
H 19.882 38.743 33.902
H 18.3   39.392 33.559
C 19.064 38.774 31.796
H 18.093 38.532 31.331
C 20.097 37.782 31.299
H 20.238 37.734 30.285
H 20.994 38.211 31.783
H 19.884 36.74  31.67 
C 19.488 40.235 31.307
H 19.628 40.089 30.233
H 20.492 40.429 31.688
C 18.403 41.38  31.518
H 18.354 41.497 32.564
H 17.466 40.875 31.148
C 18.647 42.64  30.798
H 17.882 42.621 29.997
H 19.612 42.603 30.36 
C 18.584 43.957 31.645
H 19.217 43.888 32.546
C 17.112 44.301 32.109
H 16.949 45.137 32.83 
H 16.44  44.494 31.248
H 16.747 43.412 32.68 
C 19.142 45.176 30.814
H 18.716 46.133 31.2  
H 20.237 45.119 30.791
H 18.797 45.208 29.777
