137

Mg 34.85  31.111 34.247
C 31.495 31.015 33.477
C 35.289 28.171 32.637
H 35.463 27.156 32.24 
C 38.022 31.464 34.824
H 39.086 31.511 35.207
C 34.125 34.127 36.109
H 33.962 34.956 36.774
N 33.532 29.764 33.261
C 32.192 29.891 33.026
C 31.719 28.762 32.126
H 30.821 28.401 32.575
C 32.869 27.73  32.189
H 33.1   27.437 31.165
C 33.997 28.572 32.76 
C 32.55  26.489 33.021
H 31.838 25.781 32.521
H 33.439 25.855 33.235
H 32.228 26.847 34.004
C 31.537 29.251 30.663
H 32.467 29.586 30.284
H 31.028 30.228 30.765
C 30.894 28.348 29.584
H 31.584 28.069 28.81 
H 30.407 27.415 29.964
C 29.776 28.944 28.827
O 29.695 29.046 27.62 
O 28.882 29.465 29.756
N 36.417 30.024 33.75 
C 36.422 28.862 33.072
C 37.765 28.321 32.948
C 38.592 29.302 33.615
C 37.675 30.329 34.139
C 38.16  27.033 32.195
H 37.487 26.176 32.263
H 38.325 27.187 31.132
H 39.005 26.709 32.766
C 40.069 29.342 33.777
H 40.551 29.72  34.683
C 40.912 28.867 32.83 
H 40.532 28.614 31.863
H 41.996 29.016 32.997
N 35.935 32.616 35.23 
C 37.277 32.53  35.387
C 37.699 33.667 36.141
C 36.556 34.281 36.644
C 35.434 33.688 35.983
C 39.138 33.819 36.445
H 39.812 33.615 35.605
H 39.245 34.873 36.603
H 39.518 33.266 37.314
C 36.352 35.378 37.732
H 35.737 36.179 37.322
H 35.706 34.973 38.57 
C 37.65  36.07  38.231
H 38.012 36.511 37.326
H 37.395 36.764 39.017
H 38.218 35.225 38.641
N 33.265 32.264 34.694
C 33.118 33.48  35.457
C 31.721 33.933 35.451
C 31.003 33.059 34.664
C 32.009 32.04  34.251
C 31.269 35.188 36.094
H 31.271 35.063 37.18 
H 31.828 36.06  35.893
H 30.215 35.305 35.858
C 29.787 32.711 33.993
O 28.721 33.286 33.95 
C 30.018 31.393 33.24 
H 29.872 31.441 32.17 
C 29.202 30.394 33.959
O 29.155 30.202 35.138
O 28.45  29.76  33.058
C 27.709 28.649 33.478
H 27.57  27.99  32.696
H 28.194 28.052 34.233
H 26.65  29.002 33.728
C 27.731 30.074 29.085
H 27.223 29.298 28.392
H 28.071 31.013 28.58 
C 26.928 30.503 30.264
H 27.44  31.121 30.894
C 25.602 30.345 30.519
C 24.534 29.555 29.731
H 23.502 29.93  29.823
H 24.814 29.65  28.664
H 24.663 28.517 30.095
C 25.06  30.851 31.858
H 25.975 31.271 32.445
H 24.69  29.933 32.296
C 23.989 32.023 31.815
H 23.786 32.238 30.752
H 24.513 32.843 32.307
C 22.741 31.499 32.614
H 23.073 31.535 33.648
H 22.73  30.425 32.405
C 21.438 32.223 32.177
H 21.182 32.056 31.091
C 21.537 33.773 32.448
H 21.487 33.939 33.535
H 22.491 34.137 31.954
H 20.673 34.218 32.025
C 20.286 31.7   32.905
H 19.433 32.055 32.469
H 20.333 31.999 34.01 
C 20.061 30.151 32.817
H 20.313 29.703 33.727
H 20.669 29.683 32.03 
C 18.64  29.633 32.449
H 18.672 28.556 32.262
H 18.373 30.061 31.492
C 17.447 29.823 33.535
H 17.303 30.922 33.645
C 17.832 29.226 34.909
H 18.014 28.168 34.853
H 18.681 29.8   35.295
H 16.985 29.467 35.602
C 16.068 29.331 33.082
H 15.494 29.319 33.982
H 16.114 28.305 32.725
C 15.356 30.244 32.036
H 16.201 30.564 31.371
H 15.058 31.146 32.557
C 14.254 29.635 31.129
H 13.941 28.729 31.709
H 14.613 29.327 30.144
C 13.02  30.483 30.873
H 13.381 31.461 30.515
C 12.217 30.908 32.102
H 11.218 31.267 31.863
H 12.14  30.123 32.888
H 12.661 31.699 32.613
C 12.103 29.867 29.783
H 11.39  30.462 29.185
H 12.697 29.477 28.988
H 11.58  29.048 30.215
