137

Mg 35.832 31.902 36.384
C 33.414 30.627 34.28 
C 38.199 31.198 34.022
H 38.863 31.07  33.121
C 38.214 32.495 38.732
H 38.999 32.573 39.461
C 33.403 32.477 38.793
H 32.658 32.63  39.506
N 35.869 31.145 34.353
C 34.669 30.691 33.679
C 35.062 30.305 32.24 
H 34.621 29.333 32.044
C 36.618 30.288 32.298
H 37.021 30.869 31.471
C 36.936 30.912 33.637
C 37.174 28.869 32.229
H 36.727 28.119 32.972
H 36.944 28.662 31.15 
H 38.291 28.89  32.384
C 34.436 31.266 31.232
H 34.836 32.308 31.36 
H 33.319 31.24  31.453
C 34.603 30.88  29.731
H 35.347 31.382 29.258
H 34.855 29.816 29.696
C 33.373 30.981 28.871
O 33.252 31.699 27.929
O 32.42  30.159 29.36 
N 37.857 31.899 36.361
C 38.632 31.559 35.295
C 40.044 31.48  35.703
C 40.052 31.807 37.102
C 38.659 32.034 37.504
C 41.19  31.199 34.724
H 41.049 30.166 34.487
H 41.2   31.814 33.823
H 42.17  31.261 35.133
C 41.199 32.015 38.02 
H 41.085 32.832 38.758
C 42.396 31.408 37.88 
H 42.515 30.53  37.185
H 43.309 31.704 38.464
N 35.789 32.454 38.444
C 36.886 32.549 39.211
C 36.568 32.893 40.575
C 35.114 32.987 40.55 
C 34.708 32.577 39.243
C 37.564 33.174 41.632
H 37.832 32.224 41.943
H 38.362 33.774 41.247
H 37.119 33.764 42.469
C 34.204 33.367 41.685
H 33.15  33.063 41.48 
H 34.458 32.902 42.627
C 33.94  34.859 41.656
H 33.478 35.11  42.65 
H 34.982 35.391 41.626
H 33.243 35.164 40.833
N 33.854 31.588 36.555
C 32.996 31.928 37.539
C 31.651 31.688 37.145
C 31.73  31.103 35.845
C 33.107 31.03  35.567
C 30.426 31.864 37.873
H 29.963 30.885 37.908
H 30.572 32.296 38.866
H 29.759 32.42  37.27 
C 30.975 30.615 34.745
O 29.779 30.566 34.535
C 32.09  30.242 33.682
H 31.903 30.815 32.746
C 31.989 28.807 33.393
O 31.788 27.897 34.199
O 32.196 28.586 32.085
C 32.258 27.213 31.66 
H 31.362 26.647 32.033
H 32.393 27.228 30.546
H 33.104 26.781 32.067
C 31.262 29.927 28.521
H 31.599 29.831 27.493
H 30.726 30.879 28.51 
C 30.288 28.911 29.051
H 29.809 29.181 29.977
C 30.022 27.639 28.771
C 30.796 26.85  27.695
H 30.038 26.498 27.028
H 31.523 27.443 27.162
H 31.306 25.893 28.102
C 29.074 26.831 29.534
H 28.946 27.218 30.577
H 29.491 25.816 29.587
C 27.702 26.82  28.898
H 27.539 25.86  28.401
H 27.645 27.651 28.223
C 26.574 26.984 29.867
H 26.564 27.873 30.561
H 26.705 26.114 30.494
C 25.127 26.813 29.296
H 25.049 25.881 28.808
C 24.757 28.025 28.399
H 23.697 27.93  28.067
H 24.771 28.949 28.972
H 25.426 28.18  27.58 
C 23.988 26.609 30.397
H 24.151 25.805 31.002
H 23.088 26.417 29.76 
C 23.628 27.731 31.311
H 22.578 28.097 31.192
H 24.282 28.521 30.935
C 23.989 27.637 32.82 
H 24.308 28.653 33.089
H 24.807 26.9   32.975
C 22.853 27.389 33.852
H 21.878 27.908 33.541
C 23.19  28.068 35.268
H 23.36  29.17  35.294
H 22.465 27.867 36.059
H 24.134 27.63  35.57 
C 22.539 25.925 33.965
H 23.443 25.361 34.263
H 22.3   25.421 32.976
C 21.337 25.53  34.828
H 20.703 24.941 34.206
H 20.731 26.392 35.025
C 21.775 24.928 36.194
H 21.33  25.693 36.869
H 22.853 24.864 36.19 
C 21.189 23.474 36.517
H 21.56  22.77  35.814
C 19.64  23.367 36.477
H 19.44  22.278 36.545
H 19.123 23.856 37.368
H 19.237 23.569 35.485
C 21.592 23.121 37.971
H 22.641 23.258 38.025
H 21.072 23.836 38.656
H 21.39  22.103 38.227
