137

Mg 28.627 27.052 42.47 
C 25.26  26.94  43.346
C 27.693 26.896 39.152
H 27.428 26.863 38.081
C 31.891 27.53  41.677
H 32.945 27.612 41.47 
C 29.387 27.279 45.837
H 29.479 27.142 46.935
N 26.732 26.91  41.42 
C 25.519 26.825 42.001
C 24.352 26.653 40.961
H 23.717 25.793 41.29 
C 25.222 26.462 39.664
H 24.923 27.192 38.878
C 26.658 26.76  40.068
C 25.179 25.096 39.042
H 25.821 25.077 38.094
H 25.613 24.374 39.698
H 24.24  24.676 38.768
C 23.357 27.904 40.852
H 23.942 28.78  40.816
H 22.802 27.933 41.814
C 22.373 27.847 39.627
H 22.287 26.852 39.202
H 21.389 28.132 40.029
C 22.703 28.765 38.414
O 23.665 29.531 38.364
O 21.725 28.688 37.425
N 29.682 27.087 40.736
C 29.117 27.097 39.464
C 30.271 27.295 38.508
C 31.372 27.439 39.225
C 30.99  27.347 40.584
C 30.219 27.253 37.021
H 30.851 27.994 36.529
H 30.61  26.293 36.686
H 29.136 27.511 36.82 
C 32.771 27.671 38.812
H 33.335 28.364 39.469
C 33.492 27.081 37.831
H 33.086 26.26  37.172
H 34.573 27.234 37.802
N 30.336 27.401 43.591
C 31.62  27.554 43.058
C 32.571 27.751 44.191
C 31.81  27.614 45.338
C 30.43  27.454 44.953
C 34.045 27.717 44.075
H 34.585 27.863 43.123
H 34.489 28.414 44.711
H 34.399 26.811 44.539
C 32.327 27.521 46.729
H 31.995 26.637 47.312
H 33.414 27.447 46.642
C 32.085 28.883 47.427
H 32.638 28.934 48.37 
H 32.409 29.635 46.731
H 31.066 29.081 47.659
N 27.586 27.256 44.149
C 28.017 27.242 45.462
C 26.882 27.163 46.396
C 25.828 27.077 45.569
C 26.265 27.151 44.223
C 26.935 26.86  47.938
H 27.721 26.152 48.152
H 27.265 27.81  48.37 
H 25.992 26.543 48.413
C 24.37  26.802 45.562
O 23.636 26.612 46.56 
C 23.934 26.807 44.133
H 23.186 27.639 44.108
C 23.185 25.505 43.93 
O 23.675 24.387 43.795
O 21.824 25.709 43.918
C 20.869 24.561 43.956
H 21.358 23.765 43.363
H 20.771 24.094 44.926
H 19.945 24.856 43.446
C 21.8   29.726 36.436
H 22.738 29.723 35.856
H 21.699 30.773 36.852
C 20.801 29.515 35.444
H 20.986 28.672 34.763
C 19.685 30.201 35.269
C 19.102 31.355 36.06 
H 19.829 31.61  36.768
H 18.923 32.199 35.464
H 18.159 31.023 36.507
C 18.67  29.838 34.14 
H 19.094 29.456 33.241
H 18.248 30.738 33.777
C 17.649 28.911 34.704
H 16.972 29.426 35.382
H 18.196 28.141 35.303
C 17.034 27.995 33.658
H 17.521 27.044 33.964
H 17.5   28.201 32.72 
C 15.497 27.888 33.58 
H 15.068 27.733 34.587
C 15.062 26.609 32.758
H 13.944 26.562 32.684
H 15.469 26.704 31.734
H 15.468 25.639 33.13 
C 14.731 29.173 33.133
H 15.103 30.089 33.698
H 13.679 28.988 33.411
C 14.803 29.416 31.551
H 15.621 28.846 31.173
H 15.096 30.468 31.426
C 13.561 29.165 30.685
H 13.06  30.122 30.455
H 12.836 28.663 31.3  
C 13.782 28.398 29.308
H 14.593 27.658 29.553
C 14.403 29.259 28.212
H 13.588 29.946 27.844
H 15.188 29.894 28.577
H 14.735 28.609 27.343
C 12.464 27.63  28.806
H 11.679 28.284 28.726
H 12.129 27.084 29.77 
C 12.559 26.588 27.684
H 11.777 25.844 27.868
H 13.535 26.123 27.739
C 12.285 27.206 26.304
H 12.968 26.619 25.67 
H 12.769 28.211 26.279
C 10.963 26.98  25.519
H 10.1   27.324 26.069
C 10.799 25.399 25.315
H 10.874 24.682 26.149
H  9.879 25.173 24.809
H 11.605 25.049 24.648
C 10.991 27.618 24.18 
H 10.068 27.465 23.556
H 11.237 28.662 24.137
H 11.772 27.201 23.604
