137

Mg 36.08  26.132 32.606
C 32.594 26.015 32.308
C 36.249 23.285 30.659
H 36.3   22.342 30.104
C 39.367 25.971 33.214
H 40.392 26.063 33.39 
C 35.763 28.752 34.988
H 35.836 29.695 35.47 
N 34.518 24.79  31.597
C 33.206 25.003 31.572
C 32.498 23.848 30.782
H 31.852 23.375 31.464
C 33.673 22.972 30.265
H 33.894 23.078 29.178
C 34.93  23.759 30.822
C 33.572 21.58  30.841
H 34.18  20.856 30.247
H 34.035 21.552 31.855
H 32.533 21.271 30.878
C 31.626 24.445 29.658
H 32.272 24.797 28.849
H 31.149 25.339 30.072
C 30.586 23.607 28.89 
H 30.888 23.53  27.842
H 30.754 22.65  29.291
C 29.105 23.914 28.95 
O 28.258 23.047 29.081
O 28.768 25.243 28.636
N 37.576 24.983 31.862
C 37.457 23.788 31.176
C 38.655 23.156 31.028
C 39.614 23.964 31.673
C 38.896 25.067 32.265
C 38.873 21.939 30.247
H 38.979 22.32  29.213
H 39.794 21.406 30.588
H 37.974 21.32  30.405
C 41.027 23.748 31.806
H 41.519 24.078 32.731
C 41.871 23.328 30.882
H 41.521 23.177 29.874
H 42.997 23.402 31.066
N 37.357 27.155 33.869
C 38.689 26.95  33.929
C 39.377 27.962 34.793
C 38.3   28.762 35.261
C 37.061 28.228 34.736
C 40.851 28.094 35.237
H 40.818 27.936 36.27 
H 41.462 27.287 34.772
H 41.346 28.993 34.91 
C 38.374 30.124 36.064
H 37.466 30.329 36.623
H 39.202 30.126 36.787
C 38.64  31.25  35.128
H 39.105 32.1   35.689
H 39.378 30.998 34.407
H 37.75  31.61  34.572
N 34.464 27.168 33.477
C 34.51  28.192 34.396
C 33.18  28.557 34.763
C 32.328 27.686 33.983
C 33.201 26.887 33.224
C 32.766 29.697 35.702
H 33.069 29.418 36.699
H 33.213 30.617 35.374
H 31.646 29.697 35.689
C 30.994 27.332 33.64 
O 29.928 27.835 34.048
C 31.041 26.178 32.58 
H 30.485 26.604 31.75 
C 30.31  25.003 33.124
O 30.474 24.416 34.198
O 29.399 24.613 32.189
C 28.643 23.443 32.669
H 29.217 22.567 32.817
H 28.14  23.776 33.6  
H 27.882 23.275 31.93 
C 27.393 25.35  28.2  
H 26.717 25.008 28.964
H 27.146 24.692 27.36 
C 27.083 26.733 27.891
H 27.904 27.205 27.309
C 26.045 27.481 28.184
C 24.837 26.948 28.931
H 24.783 25.868 29.066
H 24.995 27.249 29.941
H 23.974 27.338 28.43 
C 26.079 28.949 27.692
H 27.086 29.212 27.487
H 25.799 29.478 28.547
C 25.212 29.608 26.593
H 25.72  30.559 26.321
H 24.256 29.907 27.017
C 25.17  28.654 25.405
H 25.5   27.553 25.718
H 25.867 29.137 24.714
C 23.784 28.461 24.695
H 23.378 29.481 24.501
C 22.834 27.624 25.541
H 21.843 27.702 25.062
H 23.079 26.566 25.467
H 22.841 27.889 26.601
C 23.831 27.765 23.287
H 22.781 27.646 22.936
H 24.218 26.74  23.548
C 24.792 28.347 22.23 
H 25.443 27.48  21.914
H 25.36  29.128 22.653
C 24.111 28.82  20.913
H 23.132 28.406 20.767
H 24.72  28.542 19.967
C 23.983 30.446 20.631
H 25.012 30.734 20.776
C 23.211 31.118 21.754
H 23.392 32.17  21.647
H 22.124 30.8   21.714
H 23.592 30.759 22.687
C 23.393 30.736 19.198
H 22.319 30.664 19.28 
H 23.678 29.986 18.488
C 23.816 32.053 18.571
H 24.404 31.805 17.604
H 24.478 32.646 19.224
C 22.571 32.9   18.182
H 22.781 33.905 18.589
H 21.678 32.593 18.707
C 22.241 32.893 16.636
H 22.332 31.863 16.255
C 23.262 33.68  15.809
H 23.128 34.682 15.864
H 24.268 33.352 16.045
H 23.112 33.691 14.694
C 20.81  33.276 16.292
H 20.547 33.187 15.233
H 20.05  32.781 16.86 
H 20.734 34.406 16.287
