137

Mg 21.642 19.206 32.091
C 25.007 18.894 31.281
C 22.145 22.41  33.036
H 22.373 23.289 33.555
C 18.446 19.372 33.131
H 17.447 19.277 33.538
C 21.053 16.02  30.864
H 20.936 14.997 30.377
N 23.356 20.505 32.076
C 24.674 20.219 31.77 
C 25.665 21.434 31.896
H 26.47  21.065 32.61 
C 24.635 22.482 32.582
H 24.719 23.414 32.068
C 23.3   21.755 32.555
C 25.058 22.976 33.961
H 25.805 23.767 33.846
H 24.222 23.299 34.566
H 25.596 22.174 34.456
C 26.299 21.983 30.612
H 25.544 22.329 29.93 
H 26.778 21.13  30.171
C 27.152 23.175 30.663
H 27.43  23.491 31.688
H 28.083 22.9   30.117
C 26.688 24.477 29.954
O 27.395 25.012 29.097
O 25.444 24.868 30.289
N 20.478 20.696 32.866
C 20.806 22.    33.217
C 19.681 22.74  33.766
C 18.663 21.768 33.861
C 19.188 20.51  33.299
C 19.706 24.172 34.307
H 19.8   24.122 35.39 
H 20.466 24.786 33.838
H 18.717 24.584 34.118
C 17.276 21.868 34.471
H 16.583 21.122 34.254
C 16.978 22.74  35.462
H 17.67  23.481 35.86 
H 15.993 22.806 35.913
N 19.992 17.939 31.888
C 18.787 18.163 32.456
C 17.843 17.089 32.274
C 18.632 16.129 31.645
C 19.965 16.675 31.44 
C 16.419 17.096 32.666
H 15.955 16.139 32.368
H 16.308 17.072 33.758
H 15.939 17.946 32.184
C 18.126 14.799 31.2  
H 18.956 14.049 31.204
H 17.34  14.356 31.899
C 17.313 14.787 29.94 
H 17.023 13.731 29.775
H 16.478 15.374 30.189
H 17.927 15.203 29.057
N 22.737 17.712 31.249
C 22.394 16.405 30.859
C 23.601 15.654 30.48 
C 24.641 16.607 30.686
C 24.064 17.874 31.017
C 23.668 14.205 29.951
H 24.671 13.919 29.496
H 23.411 13.487 30.784
H 22.977 14.177 29.052
C 26.046 16.859 30.492
O 26.877 16.113 30.074
C 26.363 18.265 31.085
H 26.865 18.863 30.346
C 27.193 18.077 32.306
O 26.829 18.248 33.423
O 28.473 17.801 31.897
C 29.451 17.642 32.996
H 29.369 16.608 33.367
H 30.394 17.765 32.522
H 29.317 18.442 33.753
C 24.912 26.029 29.488
H 24.628 25.568 28.558
H 25.702 26.734 29.248
C 23.813 26.717 30.31 
H 24.081 26.974 31.329
C 22.593 26.967 29.931
C 21.955 26.551 28.551
H 21.623 27.448 28.015
H 22.672 25.938 28.079
H 21.119 25.869 28.591
C 21.676 27.565 30.899
H 22.018 27.457 31.912
H 20.737 27.049 30.968
C 21.317 29.009 30.631
H 22.054 29.471 29.885
H 21.581 29.678 31.448
C 19.867 29.187 30.183
H 19.391 28.219 30.359
H 19.717 29.424 29.209
C 19.178 30.243 31.146
H 19.778 31.098 31.226
C 18.862 29.693 32.583
H 18.586 28.643 32.66 
H 19.802 29.858 33.143
H 18.11  30.324 33.043
C 17.779 30.808 30.5  
H 17.343 31.321 31.36 
H 17.161 29.877 30.313
C 17.935 31.724 29.301
H 17.532 31.178 28.443
H 18.97  31.889 29.016
C 17.223 33.088 29.47 
H 16.457 32.987 30.186
H 16.687 33.29  28.525
C 18.246 34.211 29.762
H 19.034 33.895 29.11 
C 18.613 34.167 31.224
H 19.536 34.806 31.364
H 17.816 34.605 31.804
H 18.856 33.088 31.576
C 17.784 35.624 29.342
H 16.98  35.819 29.94 
H 17.432 35.502 28.322
C 18.891 36.702 29.317
H 19.049 36.98  28.263
H 19.826 36.292 29.696
C 18.452 37.857 30.194
H 19.314 38.014 30.785
H 17.654 37.628 30.898
C 18.148 39.272 29.495
H 18.702 39.397 28.538
C 18.38  40.511 30.483
H 17.735 41.4   30.358
H 18.315 40.081 31.498
H 19.39  40.657 30.355
C 16.733 39.301 28.938
H 16.001 39.175 29.751
H 16.541 40.288 28.479
H 16.545 38.544 28.165
