137

Mg 20.903 27.319 29.699
C 23.655 25.337 28.909
C 22.784 28.587 32.3  
H 23.194 29.032 33.161
C 18.091 28.762 30.836
H 17.137 29.101 31.27 
C 19.178 25.821 27.183
H 18.654 25.35  26.355
N 22.996 27.057 30.391
C 23.913 26.169 29.96 
C 25.279 26.258 30.789
H 25.466 25.32  31.28 
C 24.884 27.276 31.847
H 25.5   28.211 31.73 
C 23.46  27.671 31.491
C 25.059 26.702 33.319
H 26.108 26.538 33.499
H 24.741 27.469 34.087
H 24.5   25.742 33.524
C 26.47  26.616 29.838
H 26.298 27.527 29.295
H 26.789 25.74  29.151
C 27.834 26.89  30.579
H 27.657 26.655 31.646
H 28.694 26.31  30.26 
C 28.474 28.251 30.377
O 29.363 28.56  29.585
O 27.677 29.152 31.058
N 20.554 28.703 31.166
C 21.482 29.007 32.181
C 20.835 29.852 33.145
C 19.436 30.017 32.736
C 19.268 29.117 31.538
C 21.44  30.367 34.388
H 20.496 30.527 34.959
H 22.045 29.549 34.686
H 22.047 31.227 34.171
C 18.402 30.904 33.255
H 17.355 30.611 33.17 
C 18.625 32.038 33.966
H 19.6   32.423 34.221
H 17.825 32.425 34.575
N 18.92  27.383 29.056
C 17.923 28.051 29.657
C 16.671 27.845 28.879
C 17.058 27.146 27.718
C 18.452 26.813 27.915
C 15.381 28.447 29.224
H 14.703 28.228 28.371
H 14.902 27.923 30.004
H 15.248 29.52  29.37 
C 16.259 26.631 26.499
H 15.322 27.16  26.372
H 16.805 26.759 25.55 
C 15.668 25.271 26.551
H 14.926 25.264 27.279
H 15.416 24.931 25.574
H 16.511 24.633 26.976
N 21.243 25.858 28.29 
C 20.446 25.335 27.357
C 21.131 24.4   26.587
C 22.365 24.265 27.21 
C 22.386 25.249 28.227
C 20.678 23.701 25.315
H 21.429 23.098 24.809
H 19.887 23.007 25.651
H 20.26  24.405 24.598
C 23.731 23.663 27.18 
O 24.172 22.877 26.357
C 24.543 24.28  28.262
H 25.519 24.612 27.821
C 24.865 23.12  29.041
O 24.148 22.385 29.741
O 26.239 22.935 29.061
C 26.808 22.246 30.224
H 26.396 21.218 30.298
H 27.882 22.194 30.115
H 26.585 22.851 31.132
C 27.81  30.529 30.619
H 27.565 30.596 29.577
H 28.819 30.953 30.724
C 26.732 31.264 31.404
H 26.583 30.956 32.472
C 25.923 32.189 30.83 
C 25.865 32.616 29.389
H 25.691 33.691 29.398
H 26.84  32.48  28.896
H 25.129 32.172 28.739
C 24.917 32.832 31.768
H 25.037 32.316 32.766
H 23.909 32.653 31.421
C 25.22  34.293 31.961
H 26.222 34.407 31.462
H 25.342 34.707 32.951
C 24.199 35.17  31.29 
H 23.538 34.648 30.629
H 24.847 35.808 30.704
C 23.246 36.006 32.278
H 23.79  36.265 33.17 
C 22.078 35.061 32.755
H 22.419 34.191 33.335
H 21.315 35.639 33.356
H 21.535 34.678 31.865
C 22.596 37.342 31.755
H 22.033 37.804 32.613
H 21.903 37.082 30.976
C 23.656 38.336 31.281
H 23.758 38.078 30.254
H 24.564 38.225 31.838
C 23.203 39.831 31.328
H 23.706 40.208 32.214
H 22.111 39.929 31.522
C 23.599 40.729 30.168
H 23.372 40.248 29.169
C 25.157 40.988 30.12 
H 25.656 40.013 30.018
H 25.403 41.645 29.22 
H 25.544 41.436 31.016
C 22.68  42.052 30.223
H 22.85  42.612 31.138
H 21.632 41.73  30.407
C 22.776 42.929 28.948
H 21.863 42.819 28.352
H 23.47  42.575 28.171
C 22.796 44.378 29.04 
H 23.874 44.678 29.143
H 22.282 44.75  29.992
C 22.179 45.171 27.838
H 22.123 44.628 26.895
C 22.82  46.561 27.714
H 22.366 46.888 26.798
H 22.757 47.186 28.616
H 23.868 46.392 27.465
C 20.667 45.326 28.197
H 20.461 45.968 29.029
H 20.173 45.757 27.275
H 20.214 44.373 28.556
