137

Mg 36.362 27.385 33.533
C 33.107 27.24  34.461
C 35.595 25.316 30.832
H 35.346 24.558 30.055
C 39.624 26.986 32.905
H 40.677 26.957 32.776
C 37.082 29.447 36.217
H 37.32  30.111 37.066
N 34.597 26.507 32.756
C 33.295 26.556 33.238
C 32.228 25.89  32.419
H 31.583 25.06  32.959
C 33.165 25.158 31.375
H 32.843 25.415 30.366
C 34.535 25.752 31.617
C 33.061 23.627 31.435
H 33.847 23.217 30.857
H 33.329 23.446 32.463
H 32.098 23.322 31.059
C 31.455 27.029 31.636
H 32.174 27.618 31.055
H 31.054 27.733 32.363
C 30.37  26.45  30.656
H 30.563 26.916 29.686
H 30.485 25.377 30.488
C 28.981 26.751 31.101
O 28.25  26.024 31.77 
O 28.617 27.926 30.5  
N 37.452 26.401 32.067
C 36.957 25.607 31.037
C 38.07  25.035 30.321
C 39.239 25.501 30.964
C 38.818 26.349 31.989
C 37.938 24.053 29.175
H 36.858 24.149 28.87 
H 38.608 24.359 28.328
H 38.213 23.08  29.484
C 40.666 25.19  30.666
H 41.417 25.782 31.136
C 41.118 24.268 29.817
H 40.441 23.577 29.158
H 42.231 24.087 29.667
N 38.054 28.075 34.461
C 39.347 27.736 34.038
C 40.326 28.47  34.886
C 39.514 29.247 35.736
C 38.165 28.902 35.543
C 41.803 28.215 34.749
H 41.95  27.128 34.584
H 42.251 28.711 33.892
H 42.335 28.533 35.623
C 40.124 30.17  36.816
H 39.934 29.722 37.768
H 41.22  30.283 36.73 
C 39.607 31.567 36.861
H 40.039 32.057 37.725
H 39.969 31.969 35.946
H 38.502 31.694 36.858
N 35.454 28.077 34.989
C 35.769 29.01  35.925
C 34.631 29.4   36.767
C 33.596 28.635 36.251
C 34.128 27.923 35.167
C 34.476 30.438 37.816
H 35.12  30.259 38.628
H 34.799 31.342 37.314
H 33.426 30.596 38.068
C 32.172 28.422 36.409
O 31.38  28.856 37.197
C 31.803 27.501 35.225
H 31.049 28.048 34.642
C 31.165 26.27  35.756
O 31.655 25.527 36.641
O 29.949 26.065 35.07 
C 29.283 24.886 35.711
H 29.905 24.027 35.805
H 28.932 25.321 36.682
H 28.38  24.691 35.167
C 27.394 28.434 31.01 
H 27.269 28.425 32.069
H 26.554 27.949 30.569
C 27.354 29.901 30.619
H 27.997 30.282 29.815
C 26.44  30.825 31.045
C 25.382 30.56  32.115
H 25.204 29.467 32.352
H 25.85  31.081 32.918
H 24.464 31.016 31.748
C 26.456 32.197 30.395
H 27.536 32.434 30.249
H 25.969 32.915 31.055
C 25.664 32.176 29.124
H 25.027 33.069 29.08 
H 25.052 31.281 29.026
C 26.611 32.337 27.87 
H 27.657 32.375 28.067
H 26.402 33.345 27.458
C 26.352 31.338 26.761
H 25.278 31.209 26.519
C 26.809 29.931 27.232
H 26.777 29.225 26.417
H 27.906 29.977 27.459
H 26.16  29.602 28.144
C 26.999 31.822 25.407
H 27.091 31.086 24.699
H 27.933 32.147 25.773
C 26.327 33.048 24.765
H 27.102 33.822 24.791
H 25.485 33.429 25.415
C 25.638 32.732 23.375
H 24.565 32.832 23.422
H 25.752 31.689 23.042
C 26.281 33.494 22.184
H 27.333 33.236 22.031
C 26.054 34.971 22.181
H 26.883 35.439 21.637
H 25.126 35.202 21.683
H 26.013 35.385 23.21 
C 25.734 33.028 20.726
H 25.758 33.794 19.954
H 24.689 32.829 20.91 
C 26.341 31.746 20.233
H 25.484 31.174 19.86 
H 26.716 31.209 21.092
C 27.472 31.896 19.198
H 28.222 31.192 19.438
H 27.75  32.943 19.387
C 27.019 31.663 17.729
H 26.198 32.315 17.523
C 26.547 30.214 17.419
H 27.272 29.587 17.87 
H 25.583 30.006 17.815
H 26.56  30.034 16.353
C 28.198 32.048 16.82 
H 28.007 32.085 15.785
H 28.6   33.004 17.038
H 28.986 31.353 17.044
