137

Mg 28.814 31.527 35.965
C 28.763 28.224 36.701
C 26.893 30.903 33.24 
H 26.369 30.703 32.356
C 28.799 34.797 35.223
H 28.752 35.859 34.944
C 30.45  32.113 38.98 
H 31.01  32.257 39.927
N 27.973 29.821 35.094
C 28.093 28.529 35.52 
C 27.494 27.442 34.5  
H 28.263 26.724 34.182
C 27.108 28.322 33.311
H 26.005 28.126 33.26 
C 27.274 29.757 33.916
C 27.738 28.129 31.948
H 28.87  28.359 32.018
H 27.593 27.242 31.454
H 27.242 28.818 31.26 
C 26.402 26.459 35.111
H 25.564 26.992 35.546
H 26.912 25.952 35.902
C 25.757 25.541 34.083
H 24.625 25.59  34.29 
H 25.935 25.678 32.994
C 26.022 24.062 34.181
O 27.116 23.484 34.284
O 24.821 23.367 34.206
N 27.877 32.705 34.572
C 27.1   32.232 33.52 
C 26.76  33.331 32.655
C 27.409 34.458 33.142
C 28.007 34.013 34.421
C 25.979 33.269 31.285
H 26.546 33.76  30.439
H 25.646 32.276 31.095
H 25.099 33.727 31.492
C 27.514 35.883 32.611
H 28.499 36.366 32.728
C 26.567 36.491 31.837
H 25.611 35.981 31.503
H 26.871 37.427 31.271
N 29.605 33.153 36.863
C 29.478 34.448 36.397
C 30.207 35.342 37.286
C 30.523 34.539 38.389
C 30.128 33.19  38.108
C 30.585 36.809 37.036
H 29.712 37.326 37.22 
H 31.439 37.274 37.597
H 30.767 36.908 35.952
C 30.972 35.042 39.758
H 31.956 34.569 40.059
H 30.981 36.173 39.735
C 30.027 34.827 40.972
H 29.917 33.812 41.198
H 30.552 35.282 41.842
H 29.104 35.295 40.7  
N 29.489 30.476 37.559
C 30.194 30.799 38.685
C 30.551 29.594 39.434
C 30.068 28.543 38.677
C 29.383 29.129 37.59 
C 31.413 29.505 40.618
H 31.305 28.456 40.865
H 32.502 29.796 40.458
H 30.954 30.145 41.385
C 29.914 27.083 38.489
O 30.311 26.07  39.094
C 29.112 26.881 37.165
H 28.289 26.243 37.381
C 29.999 26.115 36.305
O 31.021 26.563 35.844
O 29.675 24.813 36.048
C 30.565 24.12  35.016
H 30.447 24.526 34.032
H 31.556 24.21  35.391
H 30.302 23.081 34.951
C 24.885 21.903 34.18 
H 25.282 21.534 35.097
H 25.397 21.461 33.37 
C 23.418 21.488 34.06 
H 22.899 22.122 33.308
C 22.755 20.451 34.702
C 23.24  19.724 35.972
H 24.308 19.796 36.096
H 22.782 20.226 36.807
H 22.981 18.675 35.997
C 21.283 20.47  34.319
H 21.022 21.267 33.655
H 20.628 20.573 35.134
C 20.958 19.222 33.475
H 19.875 19.103 33.269
H 21.291 18.329 34.114
C 21.601 19.234 32.045
H 22.259 20.087 31.927
H 20.843 19.29  31.251
C 22.525 18.025 31.753
H 23.354 17.981 32.535
C 23.287 18.261 30.39 
H 23.977 17.447 30.128
H 22.605 18.421 29.608
H 23.99  19.076 30.482
C 21.816 16.652 31.806
H 21.659 16.263 32.772
H 22.556 15.979 31.455
C 20.622 16.319 30.891
H 20.829 15.405 30.342
H 20.57  17.146 30.15 
C 19.274 16.182 31.702
H 18.504 16.635 31.043
H 19.385 16.752 32.603
C 18.791 14.746 32.03 
H 18.513 14.165 31.176
C 17.487 14.79  32.763
H 17.609 15.245 33.723
H 16.862 15.464 32.162
H 17.077 13.762 32.729
C 19.861 13.933 32.825
H 19.941 14.333 33.813
H 20.933 13.949 32.33 
C 19.449 12.431 33.192
H 18.437 12.187 32.968
H 19.728 12.227 34.249
C 20.209 11.291 32.548
H 20.932 10.913 33.316
H 20.916 11.674 31.794
C 19.271 10.085 32.157
H 18.446 10.415 31.554
C 18.751  9.313 33.317
H 19.579  8.668 33.717
H 18.389  9.94  34.154
H 17.821  8.768 33.166
C 19.88   9.096 31.22 
H 20.188  9.651 30.39 
H 20.623  8.507 31.634
H 19.149  8.403 30.777
