137

Mg 30.225 28.466 34.432
C 28.865 28.206 37.611
C 27.031 28.985 33.221
H 26.062 29.158 32.801
C 31.498 28.866 31.396
H 31.93  29.16  30.445
C 33.327 28.522 35.813
H 34.264 28.741 36.251
N 28.212 28.603 35.313
C 27.844 28.392 36.663
C 26.377 28.62  36.88 
H 26.055 27.774 37.532
C 25.759 28.614 35.386
H 25.234 29.472 35.06 
C 27.079 28.802 34.586
C 25.012 27.292 34.933
H 24.921 27.29  33.841
H 25.672 26.518 35.356
H 24.025 27.298 35.336
C 26.114 30.045 37.628
H 26.407 30.829 36.972
H 26.788 30.12  38.453
C 24.696 30.162 38.159
H 24.249 29.238 38.44 
H 24.741 30.724 39.078
C 23.72  30.744 37.189
O 23.573 31.89  36.857
O 23.109 29.75  36.488
N 29.415 28.784 32.637
C 28.107 29.032 32.323
C 27.989 29.258 30.902
C 29.246 29.12  30.296
C 30.104 28.878 31.414
C 26.658 29.592 30.15 
H 26.369 30.584 30.572
H 26.742 29.706 29.088
H 25.847 28.86  30.333
C 29.563 29.108 28.895
H 29.044 29.816 28.256
C 30.414 28.117 28.407
H 31.011 27.47  29.073
H 30.663 28.009 27.365
N 32.125 28.74  33.732
C 32.413 28.853 32.385
C 33.835 29.005 32.229
C 34.423 28.997 33.482
C 33.298 28.762 34.415
C 34.606 29.202 30.98 
H 34.006 29.545 30.156
H 35.371 29.898 31.227
H 35.093 28.219 30.698
C 35.93  29.11  33.779
H 36.316 28.175 34.222
H 36.525 29.285 32.914
C 36.331 30.292 34.784
H 37.397 30.096 34.729
H 36.261 31.29  34.328
H 35.969 30.214 35.843
N 31.001 28.162 36.24 
C 32.302 28.278 36.712
C 32.422 27.943 38.106
C 31.097 27.926 38.525
C 30.302 28.147 37.354
C 33.656 27.956 38.863
H 34.305 27.064 38.726
H 34.11 28.9  38.66
H 33.412 27.964 39.943
C 30.222 27.791 39.609
O 30.468 27.54  40.79 
C 28.736 27.942 39.088
H 28.313 28.863 39.52 
C 27.912 26.753 39.557
O 27.901 25.581 39.209
O 27.016 27.268 40.463
C 26.142 26.2   40.956
H 25.557 25.939 40.167
H 26.674 25.322 41.334
H 25.579 26.628 41.825
C 22.195 30.182 35.44 
H 22.783 30.704 34.647
H 21.462 30.886 35.75 
C 21.553 28.912 34.81 
H 20.839 28.404 35.382
C 21.636 28.391 33.621
C 22.483 29.017 32.482
H 21.802 29.625 31.852
H 23.304 29.703 32.875
H 23.019 28.275 31.876
C 20.625 27.35  33.293
H 20.166 26.875 34.125
H 21.113 26.551 32.774
C 19.626 27.843 32.194
H 19.707 28.878 31.937
H 18.614 27.848 32.556
C 19.654 27.09  30.89 
H 20.074 26.101 31.204
H 20.317 27.606 30.183
C 18.318 26.863 30.188
H 17.835 26.126 30.862
C 18.444 26.159 28.838
H 17.502 25.794 28.581
H 18.952 26.676 28.078
H 19.047 25.216 28.984
C 17.466 28.156 30.136
H 17.218 28.554 31.138
H 16.526 27.905 29.669
C 18.039 29.349 29.316
H 18.461 28.979 28.4  
H 18.846 29.937 29.784
C 16.947 30.312 29.009
H 16.041 30.031 29.527
H 16.858 30.158 27.938
C 17.284 31.874 29.237
H 18.327 32.013 28.946
C 17.314 32.184 30.72 
H 16.298 32.296 30.957
H 17.73  31.384 31.288
H 17.941 33.099 30.949
C 16.375 32.819 28.421
H 15.509 32.908 29.03 
H 16.168 32.278 27.488
C 16.915 34.243 28.295
H 17.958 34.129 28.389
H 16.589 34.848 29.189
C 16.524 34.871 26.942
H 15.733 34.327 26.55 
H 17.363 34.655 26.306
C 16.388 36.441 26.998
H 15.734 36.77  27.785
C 15.71  37.037 25.696
H 14.6   36.878 25.715
H 16.044 38.042 25.616
H 16.183 36.5   24.86 
C 17.724 37.193 27.303
H 17.594 38.272 27.093
H 18.046 37.016 28.329
H 18.583 36.928 26.644
