137

Mg 29.36  30.832 33.479
C 29.412 27.581 32.326
C 28.288 31.896 30.231
H 28.153 32.222 29.266
C 28.463 33.924 34.735
H 28.158 34.934 35.044
C 30.584 29.779 36.618
H 30.931 29.457 37.682
N 28.975 29.889 31.472
C 29.137 28.533 31.262
C 28.906 28.168 29.818
H 29.794 27.701 29.375
C 28.71  29.609 29.122
H 27.739 29.436 28.579
C 28.668 30.552 30.349
C 29.733 30.071 27.919
H 30.764 29.94  28.272
H 29.407 29.49  27.089
H 29.595 31.118 27.706
C 27.837 27.055 29.559
H 26.82  27.375 29.821
H 28.056 26.084 30.091
C 27.723 26.644 27.999
H 26.722 26.761 27.687
H 28.311 27.27  27.286
C 27.922 25.14  27.594
O 28.929 24.729 27.196
O 26.782 24.416 27.607
N 28.531 32.651 32.656
C 28.192 32.861 31.308
C 27.662 34.218 31.157
C 27.647 34.809 32.471
C 28.238 33.779 33.354
C 27.018 34.787 29.866
H 27.057 33.985 29.101
H 25.985 35.195 29.971
H 27.625 35.625 29.484
C 27.164 36.166 32.945
H 26.95  36.344 33.957
C 27.133 37.293 32.219
H 27.518 37.343 31.192
H 26.984 38.286 32.688
N 29.564 31.711 35.369
C 29.044 32.979 35.699
C 29.258 33.287 37.166
C 29.948 32.098 37.638
C 30.056 31.13  36.485
C 28.693 34.48  37.885
H 28.245 35.208 37.19 
H 27.991 33.925 38.507
H 29.482 34.991 38.549
C 30.292 31.774 39.138
H 31.263 31.269 39.141
H 30.334 32.679 39.695
C 29.219 30.948 39.829
H 28.284 31.53  39.81 
H 29.225 29.931 39.321
H 29.584 30.814 40.882
N 30.034 29.135 34.233
C 30.52  28.775 35.526
C 30.757 27.362 35.606
C 30.333 26.845 34.419
C 29.893 27.931 33.592
C 31.35  26.605 36.743
H 31.594 25.67  36.268
H 32.318 26.995 37.135
H 30.531 26.434 37.498
C 30.089 25.683 33.624
O 30.206 24.496 33.926
C 29.468 26.072 32.321
H 28.564 25.633 32.062
C 30.493 25.539 31.344
O 31.479 26.129 31.014
O 30.075 24.366 30.777
C 30.916 23.822 29.681
H 30.925 24.47  28.801
H 31.912 23.527 29.933
H 30.358 22.889 29.421
C 26.993 23.002 27.167
H 27.658 22.602 27.905
H 27.359 23.108 26.167
C 25.594 22.247 27.297
H 25.166 22.093 28.301
C 24.972 21.557 26.345
C 25.344 21.523 24.876
H 26.209 22.05  24.602
H 25.597 20.491 24.557
H 24.483 21.815 24.206
C 23.644 20.812 26.559
H 23.442 20.976 27.623
H 23.993 19.797 26.472
C 22.43  21.091 25.593
H 22.314 20.228 24.966
H 22.634 21.944 24.921
C 21.158 21.611 26.271
H 20.772 22.436 25.771
H 21.435 22.021 27.303
C 20.007 20.582 26.408
H 19.979 20.109 25.48 
C 18.646 21.317 26.471
H 18.618 22.034 27.277
H 18.445 21.829 25.506
H 17.916 20.525 26.629
C 20.111 19.464 27.442
H 21.073 18.96  27.247
H 19.418 18.626 27.186
C 20.055 19.923 28.964
H 19.04  19.976 29.212
H 20.656 20.832 29.081
C 20.807 18.882 29.896
H 21.448 18.145 29.331
H 20.059 18.34  30.399
C 21.807 19.52  30.987
H 21.413 20.337 31.594
C 23.103 19.979 30.319
H 23.281 19.505 29.382
H 23.12  21.103 30.249
H 24.033 19.639 30.897
C 22.169 18.367 32.078
H 23.137 18.464 32.529
H 22.245 17.429 31.559
C 21.222 18.348 33.216
H 20.551 19.208 33.271
H 21.799 18.368 34.161
C 20.368 17.042 33.322
H 20.69  16.368 34.17 
H 20.452 16.522 32.335
C 18.857 17.23  33.431
H 18.507 17.925 32.783
C 18.449 17.585 34.893
H 17.387 17.736 34.949
H 18.619 16.657 35.48 
H 18.958 18.418 35.172
C 18.198 15.873 33.115
H 18.42  15.104 33.867
H 17.132 15.981 33.058
H 18.531 15.456 32.149
