137

Mg 38.268 27.033 33.386
C 34.875 27.604 33.876
C 37.53  24.516 31.217
H 37.397 23.786 30.451
C 41.513 26.57  32.78 
H 42.585 26.263 32.907
C 38.908 29.779 35.393
H 39.108 30.489 36.211
N 36.436 26.076 32.738
C 35.15  26.447 33.101
C 34.087 25.614 32.308
H 33.44  25.181 33.033
C 34.906 24.466 31.573
H 34.691 24.393 30.491
C 36.359 25.042 31.84 
C 34.675 23.039 32.209
H 35.479 22.359 31.876
H 34.88  23.004 33.288
H 33.716 22.531 31.901
C 33.31  26.433 31.219
H 34.003 26.825 30.478
H 32.848 27.266 31.692
C 32.133 25.71  30.578
H 32.089 25.772 29.489
H 32.258 24.685 30.818
C 30.763 26.14  31.168
O 30.118 25.527 31.969
O 30.333 27.324 30.615
N 39.337 25.72  32.22 
C 38.859 24.785 31.36 
C 39.889 24.008 30.669
C 41.114 24.632 31.073
C 40.709 25.652 32.119
C 39.733 22.844 29.674
H 40.587 22.84  28.942
H 39.603 21.922 30.126
H 38.841 22.945 29.14 
C 42.49  24.282 30.827
H 43.367 24.897 31.155
C 42.966 23.094 30.411
H 42.343 22.252 30.076
H 44.027 22.969 30.31 
N 39.922 28.025 33.971
C 41.173 27.664 33.648
C 42.166 28.48  34.328
C 41.383 29.345 35.09 
C 39.966 29.091 34.784
C 43.675 28.367 34.365
H 44.032 28.015 35.324
H 44.052 27.837 33.525
H 44.13  29.319 34.196
C 41.856 30.446 35.998
H 41.313 30.351 36.887
H 42.896 30.26  36.14 
C 41.512 31.767 35.575
H 42.247 32.55  35.79 
H 41.342 31.654 34.509
H 40.621 32.237 35.962
N 37.138 28.425 34.408
C 37.599 29.428 35.244
C 36.445 30.025 35.878
C 35.305 29.425 35.284
C 35.809 28.381 34.477
C 36.387 31.18  36.893
H 35.312 31.344 37.144
H 36.972 30.781 37.782
H 36.87  32.057 36.472
C 33.845 29.425 35.216
O 33.015 30.091 35.772
C 33.473 28.186 34.278
H 32.963 28.564 33.378
C 32.587 27.362 35.14 
O 32.916 26.446 35.895
O 31.289 27.663 34.879
C 30.23  26.726 35.239
H 29.272 27.243 35.152
H 30.166 25.859 34.568
H 30.256 26.345 36.252
C 28.897 27.595 30.846
H 28.741 27.706 31.908
H 28.24  26.825 30.392
C 28.604 28.9   30.015
H 28.724 28.691 28.908
C 28.279 30.142 30.543
C 27.809 30.458 31.977
H 28.337 29.73  32.694
H 28.148 31.44  32.222
H 26.754 30.51  32.209
C 28.016 31.297 29.584
H 28.724 31.173 28.792
H 28.136 32.259 30.047
C 26.7   31.273 28.815
H 26.022 31.852 29.368
H 26.281 30.288 28.71 
C 26.815 31.991 27.432
H 27.708 32.615 27.272
H 25.935 32.702 27.437
C 26.765 30.987 26.252
H 25.838 30.393 26.345
C 27.93  29.942 26.244
H 27.689 29.248 25.476
H 28.831 30.469 25.95 
H 28.045 29.519 27.215
C 26.691 31.745 24.795
H 26.596 30.93  24.093
H 27.601 32.209 24.484
C 25.498 32.69  24.489
H 25.817 33.655 24.795
H 24.63  32.349 25.157
C 25.014 32.676 23.031
H 24.216 33.417 22.885
H 24.61  31.697 22.858
C 26.045 32.928 21.937
H 26.832 32.138 22.127
C 26.638 34.362 21.954
H 27.651 34.348 21.503
H 26.066 34.907 21.173
H 26.5   34.963 22.852
C 25.422 32.624 20.519
H 25.729 33.25  19.668
H 24.337 32.802 20.651
C 25.449 31.145 19.988
H 24.493 31.029 19.556
H 25.597 30.388 20.726
C 26.34  31.02  18.749
H 26.857 31.92  18.53 
H 25.647 30.916 17.936
C 27.176 29.675 18.687
H 26.543 28.837 18.442
C 28.015 29.34  19.863
H 28.832 30.072 19.986
H 27.411 29.311 20.788
H 28.523 28.307 19.685
C 28.168 29.749 17.506
H 28.884 28.902 17.453
H 27.583 29.756 16.535
H 28.766 30.687 17.645
