137

Mg 27.512 26.879 43.506
C 25.398 24.769 41.774
C 29.236 27.383 40.482
H 29.883 27.461 39.676
C 29.508 29.304 44.897
H 30.171 30.04  45.353
C 25.586 26.728 46.296
H 24.955 26.713 47.224
N 27.372 26.028 41.381
C 26.356 25.234 40.933
C 26.512 24.942 39.43 
H 26.487 23.923 39.256
C 27.956 25.538 39.132
H 27.985 26.144 38.213
C 28.189 26.439 40.407
C 28.985 24.39  38.842
H 29.971 24.811 39.025
H 28.804 23.553 39.526
H 29.05  24.119 37.766
C 25.303 25.446 38.609
H 25.327 26.544 38.482
H 24.407 25.318 39.245
C 25.133 24.691 37.243
H 26.096 24.851 36.885
H 24.857 23.644 37.379
C 24.121 25.334 36.304
O 24.329 26.249 35.517
O 22.798 24.893 36.443
N 29.148 28.031 42.853
C 29.755 28.013 41.635
C 30.97  28.865 41.638
C 31.029 29.434 42.921
C 29.849 28.943 43.649
C 31.889 29.151 40.451
H 31.732 28.383 39.638
H 31.677 30.177 40.107
H 32.94  29.106 40.74 
C 32.111 30.294 43.376
H 33.118 29.902 43.12 
C 32.013 31.469 44.095
H 31.075 32.042 44.267
H 32.891 31.993 44.484
N 27.49  27.918 45.301
C 28.475 28.831 45.681
C 28.214 29.201 47.125
C 27.078 28.467 47.516
C 26.659 27.65  46.373
C 29.078 30.045 47.98 
H 30.066 29.598 47.98 
H 29.02  31.029 47.689
H 28.816 30.047 49.029
C 26.527 28.316 48.918
H 26.214 27.275 49.118
H 27.379 28.336 49.614
C 25.42  29.369 49.269
H 25.847 30.373 49.475
H 24.671 29.477 48.586
H 24.926 28.907 50.101
N 25.899 25.908 43.97 
C 25.206 25.945 45.19 
C 24.067 25.078 45.022
C 24.066 24.627 43.74 
C 25.23  25.145 43.132
C 23.079 24.629 46.041
H 22.184 24.541 45.474
H 23.352 23.672 46.538
H 23.06  25.386 46.83 
C 23.44  23.719 42.757
O 22.443 23.061 42.851
C 24.301 23.756 41.482
H 23.627 23.971 40.628
C 24.816 22.355 41.345
O 25.491 21.73  42.147
O 24.632 21.997 40.003
C 25.459 20.9   39.569
H 25.509 20.775 38.543
H 26.515 21.077 39.827
H 25.26  20.017 40.073
C 21.769 25.555 35.607
H 21.957 25.224 34.57 
H 21.829 26.614 35.561
C 20.384 25.117 36.146
H 20.141 25.484 37.167
C 19.417 24.502 35.553
C 19.645 23.705 34.266
H 19.056 22.811 34.165
H 19.474 24.425 33.399
H 20.741 23.508 34.191
C 18.221 24.128 36.402
H 18.461 24.166 37.503
H 18.056 23.061 36.23 
C 16.883 24.727 36.045
H 16.243 23.93  35.607
H 16.948 25.363 35.11 
C 16.082 25.375 37.222
H 16.724 25.687 38.1  
H 15.278 24.66  37.529
C 15.38  26.7   36.906
H 16.182 27.361 36.545
C 14.813 27.374 38.148
H 14.224 28.244 37.96 
H 14.224 26.692 38.72 
H 15.635 27.699 38.767
C 14.488 26.747 35.621
H 14.838 26.016 34.945
H 14.73  27.661 35.06 
C 12.909 26.74  35.709
H 12.567 27.71  35.565
H 12.584 26.341 36.631
C 12.222 25.97  34.519
H 12.877 25.309 33.979
H 11.966 26.818 33.916
C 11.019 25.066 34.772
H 10.357 25.472 35.62 
C 11.417 23.569 35.094
H 11.858 23.172 34.214
H 12.178 23.451 35.861
H 10.524 22.97  35.453
C 10.093 25.109 33.511
H 10.52  24.538 32.726
H  9.938 26.119 33.198
C  8.606 24.721 33.761
H  8.141 25.708 33.885
H  8.63  24.225 34.726
C  7.929 23.845 32.826
H  7.333 23.086 33.433
H  8.651 23.208 32.359
C  6.972 24.696 31.888
H  7.64  25.439 31.478
C  5.903 25.585 32.601
H  6.187 26.407 33.342
H  5.403 26.061 31.729
H  5.227 24.946 33.143
C  6.338 23.69  30.904
H  5.651 24.341 30.3  
H  7.135 23.277 30.301
H  5.758 22.91  31.323
