137

Mg 22.641 26.427 31.226
C 25.385 24.397 30.989
C 23.685 27.516 34.261
H 23.856 27.857 35.302
C 20.01  28.445 31.19 
H 19.206 29.162 31.237
C 21.496 25.001 28.291
H 21.097 24.673 27.361
N 24.419 26.226 32.33 
C 25.402 25.274 32.063
C 26.477 25.261 33.134
H 26.562 24.236 33.427
C 25.821 26.105 34.296
H 26.504 26.912 34.674
C 24.591 26.707 33.572
C 25.527 25.13  35.5  
H 26.452 24.736 36.017
H 24.946 25.714 36.276
H 24.95  24.237 35.218
C 27.779 25.827 32.506
H 27.588 26.748 31.979
H 28.385 25.248 31.783
C 28.874 26.265 33.518
H 28.647 25.816 34.509
H 29.731 25.64  33.238
C 29.258 27.717 33.586
O 30.377 28.206 33.327
O 28.096 28.477 33.737
N 22.037 27.808 32.478
C 22.528 28.098 33.728
C 21.673 29.061 34.42 
C 20.603 29.306 33.518
C 20.823 28.508 32.386
C 21.851 29.598 35.797
H 21.077 29.095 36.414
H 22.791 29.489 36.196
H 21.636 30.675 35.793
C 19.379 30.085 33.789
H 18.595 29.97  33.056
C 19.066 30.899 34.815
H 19.732 31.174 35.673
H 18.046 31.287 34.874
N 20.949 26.597 30.014
C 19.994 27.575 30.177
C 19.014 27.551 29.099
C 19.466 26.478 28.285
C 20.676 25.926 28.907
C 17.834 28.458 29.112
H 17.426 28.531 28.143
H 16.962 28.172 29.693
H 18.166 29.479 29.293
C 18.779 26.132 26.968
H 18.059 26.897 26.75 
H 19.436 26.177 26.033
C 18.014 24.796 26.875
H 17.159 24.844 27.593
H 17.522 24.803 25.905
H 18.646 23.979 26.971
N 23.155 24.855 29.938
C 22.651 24.401 28.75 
C 23.535 23.461 28.194
C 24.563 23.311 29.07 
C 24.335 24.223 30.1  
C 23.357 22.933 26.83 
H 23.17  23.727 26.108
H 24.202 22.34  26.551
H 22.541 22.248 26.933
C 25.879 22.761 29.266
O 26.649 22.122 28.516
C 26.384 23.306 30.597
H 27.383 23.731 30.394
C 26.452 22.243 31.592
O 25.592 21.46  31.783
O 27.677 22.272 32.255
C 27.826 21.192 33.158
H 28.891 21.06  33.515
H 27.336 21.359 34.118
H 27.594 20.164 32.699
C 28.219 29.922 33.695
H 28.615 30.201 32.688
H 28.773 30.329 34.56 
C 26.896 30.706 33.626
H 26.287 30.56  34.572
C 26.426 31.64  32.772
C 27.121 32.187 31.528
H 26.683 31.795 30.659
H 27.153 33.264 31.518
H 28.168 31.938 31.599
C 24.995 31.965 32.895
H 24.566 31.586 33.757
H 24.526 31.626 32.015
C 24.714 33.441 33.063
H 25.635 34.045 32.992
H 24.244 33.611 34.048
C 23.875 34.043 31.936
H 23.831 33.522 30.993
H 24.274 35.006 31.684
C 22.443 34.365 32.478
H 22.61  34.866 33.388
C 21.589 33.137 32.779
H 22.113 32.52  33.498
H 20.636 33.484 33.225
H 21.423 32.576 31.824
C 21.623 35.314 31.521
H 20.631 35.382 31.843
H 21.572 34.858 30.542
C 22.012 36.806 31.286
H 22.481 36.897 30.297
H 22.71  37.154 32.082
C 20.752 37.837 31.242
H 20.791 38.45  32.15 
H 19.849 37.236 31.133
C 20.758 38.948 30.105
H 20.77  38.508 29.137
C 22.102 39.848 30.275
H 22.078 40.5   31.176
H 23.027 39.271 30.251
H 21.994 40.541 29.479
C 19.467 39.769 30.224
H 19.349 40.332 31.156
H 18.562 39.052 30.166
C 19.1   40.755 29.098
H 18.284 40.297 28.457
H 20.005 40.766 28.491
C 18.513 42.12  29.541
H 17.896 42.011 30.481
H 17.757 42.424 28.823
C 19.661 43.151 29.864
H 20.309 42.82  30.704
C 19.084 44.451 30.304
H 19.834 45.262 30.301
H 18.356 44.773 29.579
H 18.688 44.298 31.335
C 20.611 43.441 28.654
H 20.059 43.429 27.732
H 21.128 44.441 28.669
H 21.273 42.608 28.489
