137

Mg 34.215 29.998 35.263
C 31.254 28.418 34.511
C 35.702 27.983 32.799
H 36.101 27.426 31.944
C 37.279 31.382 35.839
H 38.229 31.891 35.948
C 32.92  31.414 37.975
H 32.533 31.774 38.925
N 33.521 28.431 33.812
C 32.259 27.996 33.652
C 32.07  26.961 32.537
H 31.692 26.045 32.92 
C 33.533 26.76  32.024
H 33.635 27.054 30.971
C 34.327 27.746 32.983
C 34.106 25.253 31.922
H 34.926 25.258 31.307
H 34.407 24.99  32.942
H 33.402 24.645 31.389
C 30.991 27.466 31.493
H 31.498 28.202 30.873
H 30.197 27.947 32.066
C 30.474 26.438 30.45 
H 30.785 26.821 29.461
H 30.953 25.489 30.487
C 29.04  26.155 30.264
O 28.399 25.142 30.609
O 28.482 27.273 29.627
N 36.205 29.707 34.403
C 36.549 28.907 33.436
C 37.956 29.097 33.121
C 38.443 30.163 33.907
C 37.306 30.461 34.81 
C 38.697 28.262 31.959
H 39.798 28.393 32.063
H 38.505 27.25  32.134
H 38.351 28.342 30.987
C 39.823 30.745 33.966
H 40.323 31.011 33.006
C 40.492 30.913 35.116
H 40.093 30.489 36.052
H 41.543 31.254 35.221
N 34.993 31.266 36.727
C 36.27  31.751 36.751
C 36.365 32.636 37.937
C 35.139 32.533 38.568
C 34.275 31.725 37.73 
C 37.576 33.463 38.39 
H 38.216 33.684 37.539
H 37.155 34.408 38.738
H 38.007 32.99  39.22 
C 34.692 33.27  39.846
H 34.307 32.553 40.559
H 35.513 33.832 40.268
C 33.586 34.276 39.58 
H 32.59  33.875 39.253
H 33.441 34.915 40.434
H 33.987 34.937 38.815
N 32.463 29.981 36.079
C 32.07  30.662 37.223
C 30.624 30.393 37.36 
C 30.273 29.444 36.411
C 31.461 29.264 35.604
C 29.686 30.802 38.533
H 29.949 31.796 38.918
H 28.641 30.917 38.187
H 29.781 30.098 39.4  
C 29.214 28.605 35.905
O 28.02  28.49  36.263
C 29.866 27.862 34.695
H 29.203 28.129 33.811
C 29.65  26.354 34.858
O 30.36  25.574 35.531
O 28.63  25.976 34.   
C 28.387 24.565 33.912
H 28.014 24.152 34.855
H 27.673 24.406 33.055
H 29.345 24.215 33.519
C 27.016 27.146 29.309
H 26.361 27.373 30.231
H 26.892 26.118 28.889
C 26.706 28.025 28.163
H 27.268 27.725 27.282
C 25.894 29.195 28.09 
C 25.299 29.891 29.242
H 25.491 29.399 30.137
H 25.668 30.883 29.359
H 24.28  29.839 28.969
C 25.778 29.993 26.798
H 26.676 29.733 26.197
H 25.815 31.056 27.107
C 24.551 29.627 25.954
H 24.095 28.719 26.351
H 24.87  29.514 24.886
C 23.478 30.7   26.04 
H 23.57  31.14  25.054
H 23.72  31.506 26.703
C 21.983 30.151 26.251
H 21.979 29.47  27.061
C 21.518 29.56  24.911
H 20.495 29.899 24.803
H 21.876 29.981 23.968
H 21.737 28.492 24.843
C 21.087 31.264 26.713
H 20.142 30.744 26.906
H 20.991 31.972 25.867
C 21.338 31.902 28.092
H 22.326 31.671 28.33 
H 20.685 31.55  28.923
C 21.452 33.41  27.935
H 20.637 33.772 27.408
H 22.216 33.694 27.156
C 21.584 34.303 29.259
H 22.225 33.749 29.941
C 20.159 34.335 29.901
H 19.765 33.345 29.842
H 20.142 34.657 30.955
H 19.44  34.906 29.327
C 22.194 35.665 28.888
H 22.09  36.34  29.772
H 21.721 36.064 28.018
C 23.682 35.672 28.56 
H 23.684 36.111 27.549
H 23.965 34.687 28.391
C 24.607 36.426 29.543
H 24.033 36.504 30.465
H 24.608 37.463 29.17 
C 25.982 35.744 29.793
H 26.554 35.923 28.948
C 25.988 34.317 30.175
H 25.582 34.182 31.182
H 25.333 33.785 29.576
H 26.926 33.901 30.176
C 26.701 36.589 30.857
H 27.604 36.023 31.128
H 27.047 37.512 30.359
H 26.067 36.86  31.705
