137

Mg 20.759 27.102 30.234
C 23.535 25.064 29.216
C 22.862 28.77  32.271
H 23.656 29.344 32.835
C 18.29  29.316 30.92 
H 17.449 29.948 31.123
C 19.041 25.859 27.568
H 18.483 25.452 26.747
N 22.889 26.934 30.72 
C 23.852 26.101 30.153
C 25.241 26.338 30.748
H 25.752 25.423 30.99 
C 24.856 27.138 32.002
H 25.567 27.928 32.114
C 23.454 27.724 31.61 
C 24.858 26.354 33.274
H 25.91  26.066 33.306
H 24.686 26.79  34.28 
H 24.197 25.536 33.035
C 26.169 27.18  29.817
H 25.587 28.028 29.393
H 26.358 26.586 28.941
C 27.468 27.644 30.397
H 27.74  27.393 31.406
H 28.241 27.141 29.845
C 27.624 29.158 30.389
O 28.693 29.663 30.259
O 26.474 29.873 30.718
N 20.579 28.804 31.399
C 21.589 29.338 32.175
C 21.045 30.518 32.938
C 19.736 30.791 32.47 
C 19.504 29.609 31.591
C 21.804 31.303 34.086
H 21.144 32.049 34.522
H 22.254 30.685 34.879
H 22.675 31.902 33.687
C 18.714 31.795 32.746
H 17.654 31.541 32.494
C 18.97  33.047 33.131
H 19.986 33.434 33.309
H 18.138 33.764 33.212
N 18.981 27.429 29.464
C 18.001 28.339 30.013
C 16.767 28.136 29.235
C 16.974 27.203 28.215
C 18.361 26.814 28.371
C 15.473 28.897 29.704
H 14.785 28.078 29.951
H 15.547 29.613 30.505
H 15.265 29.467 28.788
C 15.883 26.712 27.252
H 14.985 27.379 27.223
H 16.268 26.806 26.235
C 15.577 25.224 27.43 
H 15.164 25.039 28.408
H 14.904 24.958 26.601
H 16.583 24.786 27.287
N 21.071 25.726 28.801
C 20.324 25.337 27.71 
C 21.01  24.363 26.918
C 22.211 24.178 27.486
C 22.261 25.048 28.596
C 20.541 23.791 25.601
H 21.085 22.913 25.314
H 19.526 23.425 25.752
H 20.581 24.45  24.736
C 23.491 23.439 27.34 
O 23.839 22.564 26.571
C 24.414 24.029 28.51 
H 25.389 24.469 28.134
C 24.591 22.897 29.426
O 23.743 22.084 29.791
O 25.832 23.007 30.004
C 25.939 22.554 31.366
H 25.12  22.929 31.962
H 25.765 21.466 31.467
H 26.934 22.761 31.789
C 26.796 31.219 31.145
H 27.335 31.628 30.32 
H 27.535 31.22  31.968
C 25.667 32.082 31.523
H 25.139 31.732 32.383
C 25.379 33.305 31.114
C 26.105 34.134 29.999
H 26.584 35.013 30.315
H 26.906 33.535 29.584
H 25.35  34.351 29.338
C 24.164 34.085 31.713
H 23.579 33.377 32.295
H 23.581 34.488 30.971
C 24.559 35.247 32.66 
H 25.632 35.43  32.687
H 24.59  34.899 33.656
C 23.868 36.609 32.429
H 22.991 36.241 31.831
H 24.564 37.214 31.778
C 23.518 37.433 33.724
H 24.51  37.583 34.198
C 22.528 36.702 34.702
H 23.039 35.908 35.19 
H 22.293 37.448 35.437
H 21.636 36.422 34.073
C 22.957 38.846 33.368
H 22.686 39.454 34.234
H 22.04  38.705 32.838
C 23.85  39.686 32.463
H 24.285 39.138 31.617
H 24.576 40.118 33.137
C 23.028 40.921 31.984
H 23.203 41.836 32.596
H 21.978 40.673 32.013
C 23.129 41.302 30.454
H 23.006 40.372 29.818
C 24.474 41.976 30.141
H 25.304 41.348 30.436
H 24.534 42.054 29.011
H 24.33  42.931 30.657
C 21.925 42.244 30.078
H 22.   43.22 30.62
H 21.001 41.72  30.414
C 21.798 42.537 28.562
H 20.926 42.073 28.231
H 22.618 41.992 28.088
C 21.761 44.022 28.131
H 21.926 44.684 29.021
H 20.701 44.109 27.878
C 22.588 44.329 26.852
H 23.436 43.723 27.054
C 22.846 45.809 26.699
H 23.677 45.946 25.978
H 21.939 46.327 26.317
H 23.118 46.282 27.622
C 21.934 43.735 25.568
H 21.17  44.441 25.131
H 22.725 43.554 24.845
H 21.559 42.719 25.671
