137

Mg 28.803 31.456 37.105
C 29.432 28.178 37.677
C 27.393 30.512 34.02 
H 26.819 30.166 33.163
C 28.36  34.738 36.342
H 28.289 35.845 36.14 
C 29.919 32.275 40.186
H 30.305 32.409 41.215
N 28.483 29.593 36.019
C 28.835 28.332 36.442
C 28.472 27.22  35.423
H 29.401 26.658 35.167
C 27.991 28.048 34.193
H 26.99  27.816 33.864
C 27.938 29.479 34.737
C 28.901 27.858 32.946
H 29.925 28.188 33.1  
H 28.862 26.76  32.68 
H 28.537 28.394 32.13 
C 27.413 26.253 36.055
H 26.428 26.726 36.164
H 27.721 25.728 36.991
C 27.045 25.176 34.985
H 26.023 25.321 34.588
H 27.765 25.247 34.112
C 27.3   23.715 35.394
O 28.3   23.233 35.872
O 26.199 23.01  35.109
N 28.015 32.487 35.442
C 27.431 31.918 34.354
C 27.004 32.962 33.396
C 27.467 34.207 33.957
C 28.    33.874 35.301
C 26.327 32.67  32.076
H 25.406 32.186 32.064
H 26.073 33.597 31.527
H 26.992 31.936 31.552
C 27.27  35.599 33.478
H 28.17  36.163 33.518
C 26.077 36.114 33.007
H 25.242 35.435 32.882
H 25.986 37.167 32.656
N 29.173 33.252 38.127
C 28.898 34.462 37.676
C 29.257 35.411 38.694
C 29.698 34.718 39.788
C 29.598 33.377 39.374
C 29.11 36.86 38.58
H 29.137 37.367 39.547
H 29.995 37.145 37.93 
H 28.231 37.059 37.973
C 30.143 35.327 41.153
H 31.138 34.903 41.457
H 30.21  36.41  41.049
C 29.247 35.002 42.364
H 29.441 35.634 43.263
H 28.2   35.015 42.036
H 29.395 33.953 42.674
N 29.54  30.5   38.607
C 29.975 30.891 39.815
C 30.515 29.798 40.614
C 30.322 28.701 39.786
C 29.764 29.158 38.572
C 31.183 29.96  41.952
H 30.471 30.228 42.656
H 31.537 28.967 42.107
H 32.034 30.632 41.901
C 30.524 27.253 39.662
O 31.035 26.401 40.437
C 29.895 26.897 38.306
H 29.021 26.308 38.567
C 30.9   26.173 37.54 
O 31.707 26.722 36.731
O 30.838 24.811 37.826
C 31.658 23.954 36.886
H 31.191 23.942 35.872
H 32.617 24.461 36.695
H 31.751 22.951 37.266
C 26.097 21.585 35.428
H 26.082 21.321 36.461
H 27.053 21.094 35.046
C 24.907 21.019 34.767
H 24.708 21.423 33.815
C 23.907 20.247 35.264
C 23.788 19.688 36.66 
H 24.514 20.089 37.362
H 22.795 19.91  37.035
H 23.93  18.604 36.709
C 22.63 19.89 34.34
H 22.68  20.508 33.447
H 21.74  20.338 34.826
C 22.422 18.339 34.03 
H 21.491 18.317 33.438
H 22.257 17.854 34.985
C 23.554 17.714 33.244
H 24.514 18.196 33.445
H 23.38  17.858 32.217
C 23.611 16.098 33.426
H 23.956 16.021 34.464
C 24.764 15.441 32.618
H 24.939 14.404 32.99 
H 24.467 15.449 31.546
H 25.634 16.087 32.801
C 22.314 15.245 33.323
H 21.589 15.752 33.981
H 22.524 14.152 33.439
C 21.715 15.171 31.797
H 21.767 14.115 31.439
H 22.282 15.797 31.145
C 20.231 15.651 31.687
H 20.246 16.496 31.05 
H 19.95  15.975 32.757
C 19.162 14.66  31.333
H 19.431 14.221 30.431
C 17.74  15.239 31.239
H 17.279 15.438 32.174
H 17.686 16.21  30.671
H 17.193 14.452 30.832
C 19.128 13.505 32.446
H 18.804 13.953 33.365
H 20.089 13.113 32.602
C 18.146 12.332 32.264
H 17.745 12.279 31.224
H 17.238 12.582 32.872
C 18.646 10.861 32.629
H 19.574 10.969 33.226
H 18.933 10.473 31.601
C 17.682  9.84  33.223
H 16.807  9.856 32.604
C 17.239 10.384 34.566
H 18.015 10.853 35.175
H 16.567 11.215 34.428
H 16.759  9.573 35.119
C 18.29   8.476 33.286
H 18.696  8.271 32.32 
H 19.216  8.528 33.889
H 17.599  7.697 33.574
