137

Mg 34.973 29.42  33.337
C 31.734 28.221 33.666
C 35.502 27.288 30.653
H 35.714 26.49  29.95 
C 38.147 30.787 33.041
H 39.141 31.262 32.814
C 34.505 31.319 36.121
H 34.387 31.939 36.996
N 33.709 27.982 32.305
C 32.408 27.676 32.585
C 31.853 26.784 31.543
H 31.37  26.008 32.144
C 33.072 26.257 30.752
H 32.857 26.46  29.716
C 34.203 27.262 31.21 
C 33.308 24.744 30.795
H 34.006 24.559 29.961
H 33.699 24.376 31.77 
H 32.353 24.265 30.565
C 30.793 27.504 30.61 
H 31.234 28.439 30.229
H 29.897 27.819 31.148
C 30.252 26.677 29.426
H 30.837 26.935 28.558
H 30.503 25.603 29.572
C 28.732 26.891 29.209
O 27.839 26.042 29.273
O 28.508 28.221 28.914
N 36.516 29.064 32.135
C 36.596 28.117 31.104
C 37.904 28.028 30.665
C 38.602 29.095 31.175
C 37.732 29.744 32.147
C 38.373 26.996 29.602
H 39.412 27.247 29.532
H 38.169 25.965 29.994
H 37.786 27.188 28.72 
C 40.011 29.442 30.907
H 40.319 29.696 29.853
C 41.024 29.604 31.793
H 40.845 29.627 32.897
H 42.016 29.833 31.509
N 36.165 30.898 34.421
C 37.489 31.267 34.144
C 38.008 32.132 35.124
C 36.894 32.347 36.076
C 35.79  31.487 35.598
C 39.449 32.71  35.156
H 40.273 32.074 35.039
H 39.594 33.646 34.604
H 39.574 33.056 36.2  
C 36.867 33.31  37.264
H 36.235 32.952 38.084
H 37.801 33.386 37.767
C 36.295 34.669 36.919
H 36.154 35.194 37.814
H 37.124 35.057 36.307
H 35.339 34.487 36.344
N 33.427 29.817 34.535
C 33.411 30.586 35.642
C 32.055 30.497 36.248
C 31.422 29.569 35.531
C 32.283 29.143 34.552
C 31.511 31.131 37.502
H 32.121 31.901 37.898
H 30.521 31.463 37.343
H 31.436 30.276 38.109
C 30.157 28.839 35.394
O 29.175 28.902 36.092
C 30.285 28.021 34.101
H 29.59  28.251 33.312
C 29.964 26.591 34.479
O 30.69  25.896 35.185
O 28.891 26.17  33.761
C 28.51  24.806 34.142
H 27.684 24.401 33.642
H 29.254 24.156 33.845
H 28.325 24.655 35.247
C 27.101 28.529 28.944
H 26.652 28.243 29.892
H 26.631 27.969 28.163
C 26.941 30.009 28.809
H 27.756 30.624 28.373
C 25.774 30.625 28.899
C 24.389 29.985 29.302
H 24.509 28.889 29.389
H 23.95  30.339 30.228
H 23.641 30.132 28.562
C 25.599 32.081 28.387
H 26.577 32.35  27.891
H 25.58  32.639 29.248
C 24.519 32.316 27.33 
H 24.308 31.397 26.749
H 25.002 32.884 26.587
C 23.234 32.988 27.808
H 23.128 34.074 27.59 
H 23.053 32.922 28.892
C 21.925 32.37  27.238
H 21.978 31.289 27.312
C 21.848 32.581 25.754
H 20.996 32.059 25.298
H 21.833 33.632 25.509
H 22.803 32.167 25.402
C 20.659 32.945 27.967
H 19.764 32.488 27.509
H 20.699 34.009 27.832
C 20.441 32.522 29.413
H 21.331 31.884 29.636
H 19.534 31.937 29.578
C 20.42  33.807 30.368
H 19.396 34.076 30.667
H 20.807 34.594 29.78 
C 21.366 33.703 31.637
H 22.476 33.509 31.369
C 20.836 32.466 32.518
H 20.951 31.59  31.851
H 21.215 32.251 33.569
H 19.806 32.662 32.508
C 21.434 34.99  32.57 
H 21.831 34.536 33.462
H 20.45  35.295 32.842
C 22.322 36.105 31.995
H 21.569 36.838 31.589
H 22.877 35.699 31.171
C 23.177 36.765 33.048
H 22.858 36.51  34.053
H 22.969 37.818 33.034
C 24.71  36.561 33.038
H 24.941 37.124 32.127
C 25.055 34.99  32.975
H 26.136 34.837 32.906
H 24.607 34.516 33.87 
H 24.75  34.413 32.083
C 25.447 37.134 34.298
H 26.564 37.129 34.134
H 25.017 38.131 34.441
H 25.159 36.551 35.232
