137

Mg 34.807 29.763 34.019
C 31.515 28.825 33.97 
C 35.325 27.538 31.399
H 35.729 26.783 30.659
C 38.1   30.718 34.046
H 39.186 30.935 34.   
C 34.04  32.199 36.428
H 33.709 32.991 37.219
N 33.56  28.39  32.737
C 32.189 28.242 32.888
C 31.676 27.169 31.937
H 31.319 26.297 32.521
C 32.95 26.67 31.2 
H 32.87  26.94  30.149
C 34.028 27.523 31.832
C 33.211 25.223 31.322
H 34.036 24.849 30.639
H 33.488 25.095 32.35 
H 32.32  24.649 31.073
C 30.533 27.722 31.052
H 31.    28.46  30.425
H 29.924 28.236 31.73 
C 29.741 26.664 30.135
H 30.173 26.616 29.091
H 29.882 25.64  30.558
C 28.246 26.75  29.991
O 27.467 25.904 30.377
O 27.907 27.894 29.416
N 36.431 29.245 32.993
C 36.398 28.313 31.928
C 37.722 28.177 31.35 
C 38.55  29.01  32.086
C 37.709 29.725 33.116
C 38.133 27.348 30.192
H 39.198 27.49  29.896
H 38.143 26.304 30.574
H 37.454 27.639 29.405
C 40.013 28.989 32.083
H 40.565 29.213 31.129
C 40.754 28.567 33.18 
H 40.178 28.263 34.07 
H 41.83  28.396 33.127
N 35.909 31.266 35.029
C 37.264 31.493 34.918
C 37.626 32.629 35.755
C 36.409 33.071 36.424
C 35.367 32.136 35.988
C 39.063 33.146 35.74 
H 39.626 32.288 35.929
H 39.22  33.487 34.691
H 39.18  33.932 36.477
C 36.318 34.251 37.403
H 35.846 33.938 38.326
H 37.259 34.657 37.681
C 35.632 35.439 36.732
H 36.02  35.544 35.707
H 34.557 35.299 36.603
H 35.794 36.361 37.349
N 33.207 30.296 35.164
C 33.023 31.282 36.086
C 31.646 31.193 36.633
C 31.06  30.26  35.793
C 32.053 29.743 34.929
C 30.995 32.012 37.723
H 30.705 32.951 37.285
H 30.099 31.46  38.125
H 31.627 32.26  38.511
C 29.848 29.544 35.565
O 28.802 29.585 36.15 
C 30.091 28.634 34.376
H 29.229 28.918 33.808
C 29.895 27.245 34.775
O 30.503 26.659 35.633
O 28.955 26.675 33.88 
C 28.844 25.252 33.961
H 28.265 24.797 33.157
H 29.829 24.85  34.12 
H 28.308 25.096 34.889
C 26.432 28.082 29.326
H 25.868 27.951 30.262
H 26.083 27.303 28.602
C 26.121 29.436 28.746
H 26.437 29.74  27.787
C 25.303 30.37  29.244
C 24.498 30.291 30.527
H 23.447 30.364 30.298
H 24.569 29.363 31.061
H 24.67  31.182 31.157
C 24.99  31.61  28.477
H 25.715 32.06  27.834
H 24.857 32.488 29.147
C 23.714 31.464 27.633
H 23.307 30.494 27.734
H 24.064 31.645 26.586
C 22.527 32.429 27.973
H 22.965 33.415 27.748
H 22.331 32.232 28.997
C 21.189 32.292 27.164
H 20.746 31.228 27.333
C 21.388 32.537 25.589
H 20.468 32.415 25.04 
H 21.719 33.641 25.48 
H 22.187 31.86  25.255
C 20.08  33.398 27.779
H 19.308 33.645 27.078
H 20.698 34.305 27.639
C 19.442 33.03  29.125
H 20.056 32.333 29.665
H 18.527 32.571 28.879
C 19.255 34.286 29.883
H 18.28  34.703 29.61 
H 20.048 34.972 29.613
C 19.341 34.335 31.46 
H 20.266 33.836 31.654
C 18.246 33.547 32.085
H 18.188 32.59  31.59 
H 18.345 33.417 33.142
H 17.254 34.105 31.954
C 19.544 35.736 32.073
H 19.213 35.663 33.095
H 18.898 36.496 31.601
C 20.931 36.272 32.032
H 20.617 37.304 32.261
H 21.368 36.162 31.021
C 21.968 35.632 33.033
H 21.507 34.725 33.494
H 22.141 36.319 33.825
C 23.357 35.236 32.476
H 23.67  36.1   31.842
C 23.261 34.007 31.474
H 24.087 33.665 30.974
H 22.779 33.183 32.059
H 22.503 34.227 30.791
C 24.458 34.976 33.551
H 25.396 34.882 32.991
H 24.521 35.831 34.241
H 24.175 34.08  34.066
