137

Mg 20.77  17.342 25.858
C 23.364 17.216 23.591
C 22.822 19.154 27.901
H 23.429 19.861 28.518
C 18.214 17.426 28.061
H 17.285 17.487 28.706
C 18.915 15.211 23.82 
H 18.349 14.58  23.153
N 22.82  18.19  25.744
C 23.716 17.937 24.709
C 25.133 18.501 24.986
H 25.815 17.644 24.945
C 24.894 19.133 26.433
H 24.887 20.204 26.427
C 23.448 18.794 26.736
C 25.873 18.532 27.454
H 25.393 17.477 27.663
H 26.862 18.393 27.157
H 25.927 19.125 28.357
C 25.554 19.548 23.87 
H 24.726 20.287 23.725
H 25.627 18.991 22.914
C 26.874 20.297 24.106
H 27.285 20.163 25.123
H 27.623 19.926 23.409
C 26.789 21.775 23.917
O 27.311 22.405 23.003
O 25.89  22.285 24.828
N 20.55  18.181 27.678
C 21.521 18.825 28.377
C 20.932 19.296 29.688
C 19.594 18.854 29.684
C 19.392 18.174 28.416
C 21.628 20.133 30.723
H 21.385 21.11  30.441
H 21.233 19.992 31.69 
H 22.686 19.996 30.745
C 18.521 19.092 30.587
H 17.522 19.337 30.241
C 18.569 18.877 31.915
H 19.579 18.646 32.307
H 17.689 19.105 32.517
N 18.912 16.363 26.002
C 18.031 16.592 26.991
C 16.845 15.668 26.81 
C 17.106 14.949 25.613
C 18.344 15.521 25.069
C 15.59  15.675 27.647
H 14.837 16.21  27.056
H 15.323 14.626 27.728
H 15.594 16.117 28.609
C 16.201 13.881 25.023
H 16.772 12.955 24.952
H 15.325 13.679 25.636
C 15.54  14.283 23.745
H 14.697 14.977 23.905
H 16.246 14.633 22.964
H 15.188 13.337 23.371
N 21.053 16.407 24.142
C 20.183 15.603 23.379
C 20.843 15.24  22.166
C 22.13  15.814 22.191
C 22.116 16.583 23.388
C 20.328 14.344 21.166
H 19.251 14.539 20.842
H 20.934 14.492 20.243
H 20.521 13.34  21.602
C 23.358 15.909 21.479
O 23.705 15.436 20.379
C 24.202 16.875 22.302
H 24.378 17.706 21.723
C 25.508 16.103 22.544
O 25.614 15.043 23.117
O 26.575 16.786 22.055
C 27.923 16.15  22.292
H 28.002 15.171 21.861
H 28.812 16.75  21.963
H 28.111 16.102 23.353
C 25.521 23.633 24.506
H 24.975 23.852 23.607
H 26.438 24.145 24.369
C 24.509 24.075 25.572
H 23.598 23.574 25.594
C 24.689 25.007 26.536
C 26.014 25.746 26.861
H 26.376 25.607 27.92 
H 26.76  25.547 26.159
H 25.974 26.85  26.981
C 23.546 25.369 27.48 
H 23.793 25.117 28.483
H 22.607 24.82  27.241
C 23.176 26.934 27.558
H 23.628 27.386 26.714
H 23.646 27.439 28.437
C 21.672 27.227 27.69 
H 21.323 26.713 28.569
H 21.211 26.689 26.844
C 21.297 28.749 27.733
H 21.904 29.1   26.937
C 21.607 29.323 29.131
H 21.386 30.39  29.102
H 20.967 28.786 29.889
H 22.589 29.176 29.569
C 19.706 28.94  27.392
H 19.396 29.951 27.679
H 19.174 28.282 28.048
C 19.247 28.669 25.873
H 18.334 28.065 25.844
H 20.094 28.111 25.404
C 19.071 29.972 25.11 
H 19.901 29.989 24.384
H 19.281 30.867 25.704
C 17.76  30.101 24.36 
H 17.638 29.182 23.784
C 17.874 31.041 23.178
H 16.906 31.36  22.656
H 18.277 31.959 23.6  
H 18.68  30.824 22.469
C 16.69  30.551 25.387
H 17.041 31.387 26.032
H 16.639 29.698 26.066
C 15.277 30.948 24.9  
H 15.075 30.878 23.845
H 15.234 32.065 25.02 
C 14.129 30.365 25.733
H 14.548 29.826 26.544
H 13.617 29.652 25.059
C 12.998 31.225 26.26 
H 13.562 32.033 26.569
C 12.317 30.677 27.437
H 13.091 30.39  28.151
H 11.766 31.485 27.878
H 11.645 29.83  27.211
C 12.001 31.752 25.155
H 12.501 32.483 24.511
H 11.622 30.897 24.606
H 11.135 32.221 25.542
