137

Mg 24.557 32.014 35.625
C 23.17  32.388 38.849
C 21.819 33.758 34.349
H 20.947 34.339 33.952
C 26.129 32.252 32.68 
H 26.534 32.235 31.712
C 27.343 30.516 37.032
H 28.248 29.954 37.465
N 22.723 32.957 36.44 
C 22.386 32.95  37.765
C 21.058 33.593 38.027
H 20.514 32.96  38.676
C 20.502 33.519 36.579
H 19.885 34.367 36.267
C 21.767 33.441 35.693
C 19.657 32.255 36.336
H 20.239 31.368 36.645
H 18.73  32.366 36.916
H 19.467 32.137 35.286
C 21.113 34.973 38.617
H 21.734 35.526 37.96 
H 21.678 35.077 39.604
C 19.73  35.633 38.653
H 18.893 34.938 38.619
H 19.609 36.268 39.523
C 19.379 36.55  37.468
O 20.212 37.169 36.796
O 18.027 36.541 37.236
N 24.051 32.914 33.828
C 22.887 33.565 33.464
C 22.874 33.965 32.083
C 24.084 33.467 31.553
C 24.796 32.784 32.644
C 21.786 34.837 31.451
H 22.122 35.889 31.49 
H 21.718 34.702 30.391
H 20.784 34.69  31.771
C 24.764 33.614 30.214
H 25.843 33.588 30.286
C 24.175 33.84  29.015
H 23.082 33.968 28.929
H 24.695 33.969 28.086
N 26.442 31.452 34.968
C 26.883 31.635 33.675
C 28.284 31.211 33.557
C 28.641 30.712 34.81 
C 27.43  30.809 35.635
C 29.202 31.304 32.29 
H 28.622 30.838 31.455
H 29.383 32.392 32.13 
H 30.157 30.829 32.459
C 30.024 30.233 35.192
H 30.062 29.354 35.843
H 30.559 30.04  34.335
C 30.7   31.316 36.01 
H 30.141 31.698 36.892
H 31.582 30.841 36.301
H 30.953 32.182 35.396
N 25.149 31.493 37.496
C 26.285 30.854 37.977
C 26.138 30.56  39.476
C 24.928 31.203 39.803
C 24.376 31.662 38.578
C 27.12  30.023 40.403
H 26.614 29.209 40.959
H 27.993 29.522 39.849
H 27.569 30.75  41.148
C 24.08  31.586 40.95 
O 24.226 31.354 42.157
C 22.931 32.342 40.35 
H 22.926 33.349 40.808
C 21.664 31.501 40.626
O 21.573 30.291 40.393
O 20.611 32.312 40.956
C 19.365 31.635 41.125
H 19.498 30.731 41.698
H 18.701 32.321 41.687
H 18.987 31.312 40.099
C 17.647 37.527 36.231
H 18.047 37.229 35.245
H 17.703 38.489 36.59 
C 16.183 37.514 35.843
H 15.896 38.375 35.321
C 15.141 36.685 36.13 
C 15.333 35.358 36.846
H 15.259 35.568 37.881
H 14.582 34.645 36.575
H 16.333 34.933 36.521
C 13.714 37.06  35.572
H 13.638 38.091 35.549
H 13.092 36.696 36.395
C 13.165 36.445 34.286
H 12.176 36.015 34.339
H 13.927 35.755 33.879
C 12.931 37.622 33.273
H 13.579 38.495 33.566
H 11.895 38.019 33.288
C 13.305 37.367 31.796
H 14.424 37.464 31.819
C 12.854 38.563 30.992
H 13.16  39.489 31.537
H 13.365 38.574 30.016
H 11.815 38.523 30.91 
C 12.907 36.05  31.086
H 13.605 35.323 31.396
H 13.093 36.238 30.001
C 11.398 35.689 31.144
H 11.104 35.654 30.13 
H 10.878 36.484 31.694
C 11.205 34.36  31.811
H 10.475 34.607 32.631
H 12.108 33.996 32.267
C 10.6   33.203 30.991
H  9.943 33.602 30.351
C  9.923 32.076 31.818
H  9.299 31.471 31.207
H 10.654 31.516 32.434
H  9.152 32.384 32.516
C 11.568 32.487 30.036
H 12.229 31.859 30.549
H 12.057 33.269 29.547
C 10.947 31.519 28.965
H  9.835 31.562 28.967
H 11.351 30.56  29.317
C 11.363 31.771 27.451
H 11.886 30.892 27.172
H 11.918 32.675 27.372
C 10.111 31.809 26.476
H  9.273 31.238 26.871
C 10.392 31.056 25.155
H  9.502 31.156 24.596
H 11.348 31.429 24.782
H 10.441 29.999 25.514
C  9.706 33.332 26.252
H  8.846 33.326 25.63 
H  9.52 33.71 27.25
H 10.569 33.867 25.794
