137

Mg 37.52  35.567 34.532
C 34.463 34.459 33.178
C 39.158 34.209 31.759
H 39.684 33.836 30.868
C 40.422 36.495 35.82 
H 41.382 37.004 36.163
C 35.895 36.649 37.281
H 35.416 36.999 38.223
N 36.881 34.558 32.684
C 35.579 34.223 32.357
C 35.578 33.441 31.008
H 35.145 32.491 31.283
C 37.09  33.342 30.631
H 37.283 33.873 29.741
C 37.784 34.106 31.716
C 37.597 31.84  30.457
H 38.571 31.858 29.874
H 37.708 31.374 31.405
H 36.945 31.218 29.846
C 34.599 34.087 29.917
H 34.88  35.115 29.789
H 33.571 34.028 30.206
C 34.664 33.38  28.595
H 34.918 34.178 27.9  
H 35.519 32.71  28.576
C 33.453 32.594 28.037
O 33.505 31.386 27.83 
O 32.395 33.406 27.927
N 39.563 35.325 33.926
C 40.013 34.795 32.706
C 41.517 34.997 32.67 
C 41.872 35.534 33.896
C 40.611 35.746 34.633
C 42.325 34.725 31.442
H 43.399 34.956 31.628
H 42.184 33.673 31.095
H 41.967 35.341 30.665
C 43.166 35.95  34.462
H 43.276 36.139 35.531
C 44.256 36.279 33.775
H 44.382 36.351 32.66 
H 45.096 36.737 34.285
N 38.087 36.421 36.249
C 39.292 36.726 36.666
C 39.365 37.443 37.933
C 38.027 37.415 38.398
C 37.264 36.786 37.319
C 40.645 38.123 38.483
H 40.283 39.013 39.02 
H 40.946 37.486 39.346
H 41.387 38.306 37.667
C 37.458 38.012 39.723
H 36.869 37.25  40.315
H 38.28  38.362 40.28 
C 36.512 39.229 39.513
H 37.086 40.053 39.073
H 35.704 39.048 38.763
H 36.044 39.579 40.442
N 35.655 35.586 35.15 
C 35.068 36.064 36.276
C 33.633 35.899 36.291
C 33.405 35.242 35.052
C 34.632 35.045 34.417
C 32.653 36.267 37.279
H 31.603 36.284 36.988
H 32.688 35.74  38.226
H 32.895 37.243 37.604
C 32.319 34.724 34.292
O 31.143 34.633 34.537
C 33.057 34.063 33.013
H 32.601 34.551 32.133
C 32.757 32.647 33.244
O 33.509 31.925 33.877
O 31.679 32.195 32.46 
C 31.424 30.785 32.66 
H 31.565 30.454 33.69 
H 30.456 30.568 32.365
H 32.057 30.159 32.139
C 31.126 32.767 27.541
H 30.986 31.841 28.152
H 31.304 32.42  26.548
C 29.957 33.664 27.699
H 30.003 34.626 27.141
C 28.825 33.618 28.468
C 28.515 32.695 29.694
H 27.788 31.871 29.382
H 29.483 32.398 30.034
H 27.959 33.209 30.469
C 27.903 34.781 28.465
H 28.483 35.619 28.305
H 27.392 34.993 29.444
C 26.947 34.937 27.277
H 27.012 34.101 26.578
H 27.202 35.898 26.807
C 25.429 35.    27.69 
H 25.161 36.062 27.563
H 25.519 34.788 28.76 
C 24.426 34.172 26.903
H 24.619 33.099 27.059
C 24.563 34.443 25.412
H 24.658 35.533 25.299
H 25.456 33.92  25.042
H 23.722 34.029 24.923
C 22.959 34.351 27.395
H 22.428 33.761 26.691
H 22.752 35.464 27.329
C 22.787 33.808 28.85 
H 22.508 34.578 29.495
H 23.72  33.413 29.234
C 21.783 32.621 28.897
H 22.363 31.672 28.815
H 21.036 32.724 28.1  
C 20.995 32.481 30.254
H 20.517 33.428 30.492
C 21.963 32.182 31.442
H 22.377 31.209 31.283
H 22.728 32.934 31.662
H 21.389 32.019 32.349
C 19.875 31.416 30.109
H 20.249 30.39  30.032
H 19.33  31.601 29.208
C 18.727 31.424 31.174
H 17.814 31.336 30.593
H 18.658 32.423 31.64 
C 18.749 30.254 32.113
H 18.967 30.69  33.137
H 19.509 29.489 31.833
C 17.465 29.489 32.468
H 16.953 29.245 31.563
C 16.368 30.29  33.2  
H 15.363 30.171 32.77 
H 16.324 29.815 34.179
H 16.626 31.376 33.251
C 17.848 28.122 33.191
H 16.975 27.435 33.229
H 18.72  27.738 32.646
H 18.22  28.257 34.201
