137

Mg 35.029 30.911 35.183
C 31.824 30.823 33.756
C 35.816 28.026 33.523
H 35.998 27.116 33.039
C 38.172 31.523 35.885
H 39.206 31.784 36.143
C 34.093 33.892 36.758
H 33.744 34.679 37.318
N 33.952 29.664 33.73 
C 32.614 29.808 33.272
C 32.312 28.8   32.198
H 31.388 28.166 32.367
C 33.573 27.851 32.298
H 34.081 27.672 31.376
C 34.481 28.56  33.27 
C 33.187 26.438 32.758
H 32.662 26.033 31.875
H 34.095 25.838 32.854
H 32.458 26.486 33.645
C 32.045 29.492 30.803
H 32.984 29.648 30.321
H 31.958 30.504 31.053
C 30.887 28.861 29.931
H 31.405 28.426 29.   
H 30.299 28.048 30.319
C 30.03  29.919 29.241
O 30.111 30.308 28.057
O 29.136 30.349 30.202
N 36.782 29.905 34.703
C 36.894 28.661 34.072
C 38.332 28.314 33.958
C 39.022 29.399 34.661
C 37.998 30.336 35.134
C 38.995 27.15  33.237
H 38.299 26.514 32.672
H 39.722 27.374 32.423
H 39.422 26.521 34.02 
C 40.493 29.535 34.817
H 40.844 29.934 35.739
C 41.446 29.22  33.945
H 41.246 28.858 32.951
H 42.472 29.518 34.196
N 36.033 32.456 36.139
C 37.379 32.542 36.34 
C 37.707 33.753 37.093
C 36.492 34.275 37.521
C 35.448 33.542 36.774
C 39.091 34.152 37.612
H 39.173 34.565 38.63 
H 39.75  33.283 37.66 
H 39.503 34.939 36.938
C 36.297 35.526 38.365
H 35.327 35.619 38.787
H 36.987 35.508 39.237
C 36.506 36.851 37.686
H 35.83  36.835 36.833
H 36.229 37.662 38.403
H 37.544 36.939 37.338
N 33.345 32.036 35.326
C 33.125 33.197 36.061
C 31.764 33.533 36.064
C 31.195 32.659 35.182
C 32.225 31.795 34.694
C 30.964 34.56  36.907
H 30.179 34.95  36.317
H 30.567 34.023 37.812
H 31.494 35.392 37.341
C 29.981 32.326 34.528
O 28.832 32.713 34.45 
C 30.326 31.148 33.623
H 30.036 31.382 32.632
C 29.498 30.046 34.199
O 29.461 29.617 35.356
O 28.762 29.47  33.164
C 27.859 28.313 33.57 
H 27.232 28.183 32.69 
H 28.473 27.369 33.771
H 27.349 28.638 34.498
C 28.075 31.306 29.738
H 27.671 31.088 28.698
H 28.535 32.284 29.796
C 27.153 31.265 30.977
H 27.664 31.474 31.898
C 25.858 30.912 30.856
C 25.118 30.487 29.637
H 25.61  30.151 28.679
H 24.54  29.575 29.843
H 24.276 31.138 29.425
C 25.056 30.806 32.145
H 25.803 30.573 32.938
H 24.522 29.9   32.098
C 24.171 31.944 32.61 
H 24.289 32.645 31.784
H 24.741 32.314 33.495
C 22.8   31.496 32.973
H 22.673 31.302 34.059
H 22.656 30.495 32.517
C 21.623 32.371 32.363
H 21.725 32.525 31.338
C 21.611 33.863 32.899
H 21.396 33.932 33.918
H 22.583 34.383 32.638
H 20.771 34.352 32.35 
C 20.301 31.652 32.898
H 19.437 32.24  32.987
H 20.492 31.119 33.811
C 19.855 30.445 31.989
H 20.469 29.582 32.37 
H 19.98  30.666 30.908
C 18.365 30.033 32.017
H 18.31  28.916 31.938
H 17.886 30.436 31.099
C 17.435 30.344 33.228
H 17.479 31.353 33.587
C 17.818 29.581 34.608
H 18.1   28.515 34.4  
H 18.712 30.065 35.117
H 17.013 29.623 35.308
C 15.942 30.068 32.786
H 15.344 30.002 33.725
H 15.861 29.108 32.307
C 15.249 31.147 31.868
H 15.951 31.618 31.212
H 14.62  31.925 32.348
C 14.239 30.447 30.863
H 14.221 29.394 30.942
H 14.62  30.638 29.817
C 12.771 30.816 31.003
H 12.764 31.874 30.784
C 12.173 30.544 32.447
H 11.174 31.059 32.47 
H 11.982 29.498 32.641
H 12.722 31.127 33.154
C 11.914 30.204 29.94 
H 10.911 30.563 29.814
H 12.432 30.421 29.05 
H 11.835 29.145 30.056
