137

Mg 19.694 26.743 28.609
C 23.044 25.993 28.568
C 20.513 29.431 30.742
H 20.718 30.268 31.363
C 16.666 28.098 28.164
H 15.735 28.573 27.896
C 19.077 24.153 26.529
H 18.963 23.462 25.713
N 21.524 27.531 29.482
C 22.784 27.114 29.306
C 23.87  27.963 30.035
H 24.489 27.422 30.824
C 22.976 28.844 30.914
H 23.248 29.861 30.883
C 21.548 28.61  30.293
C 23.018 28.465 32.447
H 24.069 28.398 32.857
H 22.466 29.228 32.902
H 22.482 27.496 32.451
C 24.865 28.732 29.119
H 24.365 29.621 28.744
H 25.251 28.057 28.384
C 26.052 29.344 29.844
H 25.943 29.317 30.921
H 26.883 28.742 29.478
C 26.466 30.711 29.498
O 27.478 31.13  28.888
O 25.69  31.589 30.161
N 18.679 28.438 29.349
C 19.183 29.339 30.216
C 18.257 30.455 30.416
C 17.092 30.075 29.699
C 17.448 28.818 29.022
C 18.501 31.655 31.378
H 19.411 32.202 31.135
H 17.692 32.376 31.314
H 18.582 31.306 32.368
C 15.793 30.852 29.843
H 15.807 31.626 30.542
C 14.758 30.79  29.046
H 14.747 30.164 28.148
H 13.886 31.556 29.076
N 18.152 26.206 27.61 
C 16.954 26.887 27.45 
C 16.187 26.291 26.41 
C 16.879 25.106 26.01 
C 18.086 25.154 26.681
C 14.832 26.88  26.107
H 14.533 27.83  26.475
H 14.834 26.889 24.988
H 13.97  26.228 26.479
C 16.545 24.067 24.889
H 17.069 24.451 23.971
H 16.9   23.074 25.252
C 15.045 23.9   24.508
H 14.658 24.858 24.151
H 15.003 23.214 23.699
H 14.486 23.56  25.445
N 20.692 25.216 27.93 
C 20.296 24.197 27.068
C 21.487 23.311 26.759
C 22.584 23.951 27.397
C 22.032 25.097 27.998
C 21.449 22.085 25.895
H 21.148 21.272 26.464
H 20.62  22.157 25.088
H 22.421 21.932 25.437
C 24.044 23.994 27.397
O 24.825 23.285 26.749
C 24.361 25.334 28.271
H 24.983 25.916 27.645
C 25.133 24.752 29.408
O 24.752 24.439 30.53 
O 26.478 24.777 29.091
C 27.49  24.34  30.155
H 27.386 23.275 30.351
H 28.474 24.388 29.726
H 27.379 24.968 31.039
C 26.095 33.074 29.88 
H 26.041 33.167 28.768
H 27.072 33.327 30.097
C 25.088 33.993 30.503
H 24.815 33.724 31.529
C 24.448 35.087 30.055
C 24.585 35.694 28.652
H 23.621 35.902 28.11 
H 25.043 36.69  28.709
H 25.221 34.998 28.057
C 23.473 35.81  30.998
H 23.506 35.293 31.942
H 22.442 35.633 30.681
C 23.717 37.272 31.365
H 24.758 37.429 31.15 
H 23.49  37.391 32.445
C 22.965 38.293 30.46 
H 22.248 37.833 29.795
H 23.7   38.661 29.729
C 22.3   39.444 31.328
H 22.973 39.713 32.117
C 21.024 38.96  32.128
H 20.374 39.795 32.455
H 20.429 38.246 31.579
H 21.322 38.572 33.074
C 22.033 40.687 30.476
H 21.436 41.403 30.968
H 21.367 40.4   29.691
C 23.299 41.351 29.857
H 23.025 41.585 28.808
H 24.226 40.779 29.967
C 23.656 42.697 30.547
H 24.814 42.666 30.595
H 23.246 42.627 31.529
C 23.035 44.007 29.773
H 23.37  44.14  28.744
C 23.631 45.216 30.433
H 23.45  45.059 31.556
H 24.672 45.326 30.212
H 23.223 46.182 30.142
C 21.394 44.041 29.856
H 21.017 44.065 30.894
H 21.009 43.037 29.446
C 20.856 45.186 28.977
H 21.597 45.693 28.336
H 20.43  45.943 29.66 
C 19.747 44.876 27.891
H 19.661 43.823 27.94 
H 20.131 44.897 26.85 
C 18.442 45.65  27.983
H 18.102 45.887 28.974
C 17.265 44.965 27.299
H 16.429 45.626 27.191
H 17.513 44.698 26.262
H 16.923 44.061 27.849
C 18.614 47.112 27.45 
H 18.835 47.211 26.343
H 17.605 47.572 27.55 
H 19.28  47.773 28.061
