137

Mg 29.477 29.712 32.809
C 26.958 29.834 35.043
C 27.23  30.59  30.324
H 26.472 30.745 29.476
C 31.957 29.608 30.539
H 32.818 29.654 29.85 
C 31.714 28.963 35.341
H 32.355 28.848 36.148
N 27.331 30.169 32.713
C 26.536 30.167 33.755
C 25.118 30.478 33.252
H 24.525 29.601 33.621
C 25.199 30.568 31.733
H 24.857 31.571 31.439
C 26.72  30.572 31.594
C 24.475 29.469 30.888
H 24.615 29.595 29.803
H 24.741 28.496 31.29 
H 23.426 29.733 31.052
C 24.561 31.862 33.866
H 24.829 32.686 33.263
H 25.087 32.03  34.766
C 23.037 31.887 34.091
H 22.562 30.954 34.387
H 22.902 32.51  34.989
C 22.233 32.245 32.884
O 21.984 33.422 32.642
O 21.81  31.156 32.153
N 29.572 30.036 30.744
C 28.562 30.36  29.909
C 29.113 30.466 28.556
C 30.448 30.157 28.595
C 30.703 30.001 29.975
C 28.357 30.706 27.3  
H 28.731 30.01  26.578
H 27.329 30.517 27.259
H 28.483 31.732 26.949
C 31.44  30.095 27.482
H 32.179 29.253 27.378
C 31.654 31.081 26.55 
H 31.057 31.976 26.498
H 32.383 30.928 25.716
N 31.504 29.223 32.869
C 32.338 29.384 31.87 
C 33.679 29.011 32.358
C 33.573 28.855 33.745
C 32.25  29.015 34.044
C 34.909 29.016 31.481
H 34.817 29.603 30.586
H 35.732 29.449 32.069
H 35.059 27.983 31.241
C 34.717 28.693 34.746
H 34.452 27.842 35.387
H 35.69  28.55  34.246
C 34.966 29.793 35.782
H 36.02  29.963 36.036
H 34.567 30.676 35.316
H 34.299 29.529 36.655
N 29.357 29.378 34.769
C 30.344 29.128 35.686
C 29.801 28.953 36.995
C 28.412 29.237 36.797
C 28.292 29.591 35.475
C 30.604 28.573 38.206
H 31.063 29.451 38.577
H 29.947 28.173 38.978
H 31.342 27.754 37.977
C 27.112 29.214 37.426
O 26.738 28.939 38.568
C 26.109 29.612 36.261
H 25.476 30.444 36.49 
C 25.11  28.466 36.101
O 25.372 27.413 35.46 
O 23.818 28.623 36.602
C 22.924 27.438 36.453
H 23.32  26.472 36.755
H 22.226 27.686 37.239
H 22.662 27.267 35.418
C 20.907 31.59  31.039
H 20.278 32.227 31.537
H 20.412 30.654 30.699
C 21.545 32.244 29.806
H 22.372 31.637 29.36 
C 21.112 33.342 29.17 
C 19.982 34.138 29.657
H 19.071 34.011 29.073
H 19.692 33.98  30.668
H 20.248 35.164 29.636
C 21.848 33.781 27.961
H 22.877 33.423 27.979
H 21.986 34.892 28.09 
C 21.035 33.573 26.633
H 20.342 32.769 26.807
H 21.834 33.247 25.958
C 20.354 34.939 26.152
H 21.04  35.798 26.466
H 19.483 35.    26.796
C 19.88  35.141 24.644
H 20.731 35.028 23.947
C 19.641 36.696 24.457
H 20.523 37.217 24.641
H 19.335 36.88  23.411
H 18.805 37.124 25.005
C 18.746 34.31  24.182
H 19.001 33.24  24.425
H 18.781 34.46  23.028
C 17.326 34.642 24.687
H 16.84  35.417 24.068
H 17.325 35.014 25.744
C 16.378 33.375 24.501
H 16.996 32.502 24.473
H 15.891 33.375 23.521
C 15.361 33.162 25.647
H 14.708 33.975 25.601
C 16.016 32.979 27.02 
H 16.823 32.283 27.005
H 16.437 33.939 27.37 
H 15.282 32.718 27.789
C 14.513 31.844 25.296
H 15.104 30.911 25.318
H 14.262 31.844 24.24 
C 13.344 31.677 26.295
H 13.331 32.529 26.98 
H 13.396 30.753 26.904
C 11.951 31.581 25.588
H 11.736 30.527 25.599
H 12.159 31.718 24.552
C 10.772 32.509 26.051
H 10.551 32.278 27.075
C  9.439 32.058 25.28 
H  9.295 31.017 25.437
H  8.576 32.575 25.577
H  9.423 32.256 24.176
C 10.958 33.955 25.757
H 11.866 34.317 26.26 
H 10.925 34.149 24.671
H 10.137 34.442 26.288
