137

Mg 20.252 26.934 31.098
C 21.682 24.985 33.449
C 18.01  28.151 33.527
H 17.486 28.593 34.304
C 18.764 28.876 28.766
H 18.329 29.492 28.003
C 22.089 25.379 28.563
H 22.683 24.86  27.787
N 20.032 26.658 33.237
C 20.743 25.791 34.005
C 20.338 25.881 35.508
H 20.115 24.901 35.941
C 19.069 26.77  35.366
H 19.177 27.679 35.955
C 19.013 27.242 33.937
C 17.822 26.136 35.921
H 17.441 25.312 35.267
H 17.874 25.883 37.033
H 17.092 26.928 35.945
C 21.443 26.503 36.388
H 21.593 27.559 36.185
H 22.39  26.009 36.073
C 21.327 26.176 37.9  
H 20.847 25.195 38.112
H 22.39  26.197 38.205
C 20.711 27.192 38.815
O 21.339 27.663 39.739
O 19.46  27.481 38.361
N 18.692 28.228 31.157
C 17.845 28.607 32.191
C 16.981 29.672 31.823
C 17.21  29.929 30.479
C 18.265 29.027 30.078
C 15.986 30.342 32.869
H 16.267 31.312 33.379
H 15.021 30.64  32.472
H 15.681 29.538 33.571
C 16.553 30.89  29.627
H 16.252 30.562 28.629
C 16.164 32.148 29.991
H 16.317 32.502 31.04 
H 15.555 32.744 29.298
N 20.276 27.009 28.967
C 19.606 27.893 28.257
C 19.962 27.663 26.86 
C 21.003 26.746 26.851
C 21.141 26.347 28.161
C 19.389 28.471 25.712
H 19.185 27.865 24.823
H 18.333 28.797 25.968
H 20.027 29.328 25.448
C 21.746 26.341 25.521
H 22.026 25.274 25.599
H 21.056 26.329 24.682
C 23.066 27.109 25.311
H 22.848 28.169 25.163
H 23.711 26.999 26.153
H 23.738 26.72  24.556
N 21.591 25.627 30.964
C 22.307 24.986 29.911
C 23.168 23.906 30.368
C 22.898 23.916 31.744
C 21.967 24.919 32.006
C 23.854 22.878 29.505
H 24.469 22.315 30.18 
H 23.151 22.243 29.029
H 24.488 23.442 28.844
C 23.211 23.091 32.908
O 23.927 22.126 32.953
C 22.597 23.884 34.089
H 23.432 24.308 34.662
C 21.825 22.874 34.982
O 20.828 22.251 34.69 
O 22.543 22.792 36.158
C 22.048 21.734 37.032
H 22.805 21.622 37.903
H 21.081 21.871 37.45 
H 21.923 20.796 36.551
C 18.987 28.77  38.897
H 19.715 29.557 38.586
H 19.072 28.893 40.021
C 17.582 29.037 38.443
H 16.806 28.695 39.071
C 17.049 29.697 37.427
C 17.818 30.473 36.406
H 17.65  31.514 36.616
H 18.826 30.129 36.333
H 17.312 30.301 35.421
C 15.58  29.97  37.376
H 15.149 29.221 38.02 
H 15.232 29.847 36.317
C 15.2   31.334 37.976
H 16.005 31.941 38.335
H 14.461 31.147 38.828
C 14.461 32.169 37.004
H 14.653 31.95  36.012
H 14.967 33.123 37.104
C 12.925 32.431 37.117
H 12.778 32.711 38.149
C 12.202 31.041 36.714
H 12.552 30.665 35.76 
H 12.443 30.298 37.437
H 11.169 31.264 36.616
C 12.46  33.533 36.095
H 11.363 33.71  36.122
H 12.76  33.135 35.097
C 13.005 34.945 36.459
H 13.743 34.85  37.26 
H 12.151 35.496 36.861
C 13.629 35.589 35.168
H 13.233 36.571 34.871
H 13.31  34.978 34.28 
C 15.243 35.697 35.206
H 15.759 34.784 35.584
C 15.68  36.845 36.134
H 15.087 37.682 35.906
H 15.619 36.768 37.183
H 16.708 37.16  35.936
C 15.536 36.046 33.726
H 16.594 36.227 33.617
H 15.074 36.975 33.32 
C 15.348 34.979 32.588
H 15.384 33.972 32.923
H 16.238 35.003 31.916
C 14.144 35.285 31.678
H 13.582 36.046 32.115
H 13.532 34.37  31.599
C 14.428 35.594 30.153
H 14.982 34.732 29.804
C 15.233 36.911 29.878
H 14.516 37.711 30.256
H 15.969 36.923 30.672
H 15.645 37.03  28.873
C 13.154 35.538 29.389
H 13.355 35.484 28.312
H 12.566 34.626 29.625
H 12.564 36.389 29.409
