137

Mg 34.73  36.686 34.523
C 31.377 36.299 34.092
C 35.314 33.682 32.848
H 35.418 32.727 32.421
C 38.008 37.011 35.014
H 39.133 37.078 35.178
C 34.172 39.697 36.136
H 34.164 40.637 36.683
N 33.412 35.281 33.644
C 32.055 35.372 33.466
C 31.448 34.198 32.62 
H 30.803 33.736 33.361
C 32.73  33.324 32.417
H 32.878 33.142 31.336
C 33.905 34.21  32.932
C 32.559 31.821 32.984
H 32.273 31.744 34.073
H 31.853 31.269 32.371
H 33.532 31.278 32.842
C 30.765 34.746 31.31 
H 31.402 35.282 30.648
H 29.819 35.294 31.591
C 30.196 33.659 30.349
H 30.758 33.565 29.428
H 30.143 32.659 30.835
C 28.795 33.924 29.936
O 28.362 34.916 29.351
O 27.998 32.81  30.118
N 36.346 35.525 33.999
C 36.406 34.348 33.293
C 37.739 33.856 33.193
C 38.545 34.711 33.959
C 37.586 35.789 34.391
C 38.148 32.627 32.546
H 38.571 31.871 33.258
H 37.46  32.237 31.817
H 39.05  32.998 31.941
C 39.996 34.664 34.232
H 40.522 35.581 34.198
C 40.726 33.516 34.402
H 40.204 32.51  34.427
H 41.861 33.476 34.53 
N 35.95  38.116 35.417
C 37.254 38.078 35.481
C 37.76  39.321 36.144
C 36.634 40.127 36.358
C 35.516 39.323 36.013
C 39.173 39.604 36.257
H 39.58  40.205 35.436
H 39.284 40.29  37.088
H 39.746 38.676 36.541
C 36.616 41.513 36.847
H 36.098 41.658 37.801
H 37.638 41.866 37.067
C 35.916 42.602 35.859
H 35.495 43.489 36.373
H 36.738 42.924 35.259
H 35.159 42.115 35.266
N 33.172 37.703 35.198
C 33.018 38.922 35.897
C 31.583 39.146 36.196
C 30.84  38.117 35.553
C 31.848 37.291 34.898
C 31.106 40.281 37.033
H 31.836 41.093 36.776
H 30.058 40.558 36.847
H 31.287 39.963 38.054
C 29.567 37.63  35.279
O 28.481 38.147 35.624
C 29.838 36.486 34.236
H 29.439 36.884 33.343
C 29.051 35.282 34.66 
O 29.181 34.687 35.724
O 28.275 34.803 33.616
C 27.422 33.671 33.957
H 26.631 33.935 34.736
H 26.959 33.297 33.023
H 28.106 32.87  34.355
C 26.616 33.035 29.806
H 26.497 33.259 28.753
H 26.15  33.834 30.41 
C 25.872 31.741 30.198
H 25.417 31.785 31.204
C 25.589 30.671 29.434
C 26.018 30.529 27.909
H 25.164 30.031 27.454
H 26.277 31.408 27.368
H 26.768 29.781 27.911
C 24.926 29.438 29.881
H 24.855 29.463 31.008
H 25.621 28.59  29.64 
C 23.459 29.087 29.312
H 23.532 28.122 28.677
H 23.125 29.872 28.601
C 22.331 28.913 30.352
H 21.864 29.906 30.624
H 22.739 28.538 31.264
C 21.161 27.953 29.801
H 21.584 26.985 29.499
C 20.425 28.531 28.633
H 19.481 28.    28.442
H 20.257 29.569 28.787
H 20.987 28.313 27.726
C 20.242 27.587 30.966
H 20.852 27.046 31.717
H 19.625 26.836 30.471
C 19.281 28.636 31.563
H 18.289 28.311 31.164
H 19.671 29.654 31.342
C 19.282 28.494 33.065
H 20.261 28.675 33.408
H 19.013 27.413 33.139
C 18.259 29.357 33.846
H 17.18  29.046 33.599
C 18.3   30.904 33.428
H 18.326 30.961 32.331
H 17.516 31.597 33.978
H 19.258 31.268 33.735
C 18.334 29.128 35.333
H 17.823 29.962 35.797
H 19.453 29.15  35.638
C 17.748 27.734 35.825
H 18.363 26.81  35.694
H 16.819 27.699 35.297
C 17.357 27.747 37.345
H 16.198 27.873 37.271
H 17.787 28.671 37.727
C 17.769 26.62  38.321
H 18.848 26.484 38.084
C 17.046 25.24  38.104
H 15.981 25.271 38.259
H 17.232 24.968 37.082
H 17.566 24.511 38.701
C 17.737 26.95  39.803
H 16.752 27.144 40.205
H 18.033 26.036 40.418
H 18.359 27.821 40.03 
