137

Mg 20.711 26.799 29.304
C 24.042 25.695 29.241
C 21.573 28.971 31.799
H 21.796 29.591 32.734
C 17.507 27.776 29.341
H 16.428 28.071 29.348
C 19.836 24.014 27.39 
H 19.576 23.042 26.958
N 22.568 27.362 30.229
C 23.773 26.766 30.138
C 24.884 27.431 31.073
H 25.259 26.609 31.699
C 24.018 28.359 31.896
H 24.305 29.401 31.804
C 22.671 28.258 31.259
C 23.927 27.926 33.376
H 24.922 27.923 33.897
H 23.174 28.525 33.935
H 23.513 26.789 33.449
C 25.975 28.213 30.258
H 25.42  28.975 29.725
H 26.489 27.568 29.465
C 27.076 28.986 31.058
H 26.974 28.861 32.178
H 28.019 28.421 30.818
C 27.513 30.418 30.839
O 28.707 30.814 30.729
O 26.39  31.276 30.889
N 19.805 28.217 30.252
C 20.263 29.021 31.29 
C 19.236 29.833 31.767
C 18.083 29.582 31.008
C 18.457 28.51  30.093
C 19.386 30.76  32.947
H 18.412 31.23  33.215
H 19.661 30.123 33.813
H 20.093 31.512 32.905
C 16.701 30.229 31.096
H 16.338 30.348 32.132
C 15.993 30.626 30.033
H 16.356 30.588 29.025
H 14.988 31.071 30.219
N 19.016 26.196 28.295
C 17.789 26.759 28.412
C 16.8   26.015 27.615
C 17.544 24.887 27.136
C 18.884 24.971 27.684
C 15.311 26.39  27.455
H 14.685 25.621 27.785
H 14.99  27.336 27.908
H 15.091 26.595 26.389
C 17.062 23.747 26.305
H 17.795 23.484 25.566
H 17.143 22.872 26.943
C 15.622 23.743 25.751
H 15.382 24.619 25.103
H 15.583 22.95  24.967
H 14.865 23.699 26.444
N 21.647 25.184 28.471
C 21.234 24.082 27.757
C 22.327 23.087 27.491
C 23.443 23.802 27.946
C 22.997 25.024 28.601
C 22.204 21.765 26.829
H 21.167 21.528 26.579
H 22.872 21.715 25.964
H 22.463 20.981 27.491
C 24.885 23.766 28.079
O 25.729 22.993 27.627
C 25.376 24.969 28.932
H 26.104 25.581 28.286
C 26.086 24.356 30.121
O 25.573 23.607 30.879
O 27.443 24.682 30.174
C 28.23 24.05 31.29
H 28.002 24.32  32.399
H 28.155 22.944 31.284
H 29.266 24.338 31.125
C 26.756 32.684 30.694
H 27.281 32.89  29.772
H 27.404 33.01  31.48 
C 25.412 33.378 30.855
H 24.815 33.106 31.687
C 24.988 34.454 30.175
C 25.628 35.09  28.968
H 24.825 35.435 28.356
H 26.191 35.926 29.294
H 26.262 34.414 28.381
C 23.604 35.009 30.496
H 23.062 34.207 31.102
H 23.133 35.147 29.599
C 23.753 36.35  31.245
H 24.712 36.606 31.722
H 22.966 36.437 31.975
C 23.359 37.554 30.268
H 23.385 37.21  29.279
H 24.141 38.265 30.271
C 22.069 38.362 30.668
H 22.118 38.679 31.742
C 20.792 37.413 30.6  
H 19.857 37.942 30.678
H 20.916 37.067 29.602
H 20.785 36.498 31.223
C 21.655 39.658 29.853
H 20.793 40.077 30.306
H 21.544 39.359 28.782
C 22.767 40.732 29.756
H 23.063 40.822 28.693
H 23.629 40.427 30.279
C 22.506 42.068 30.521
H 23.44  42.234 31.073
H 21.797 42.079 31.324
C 22.301 43.402 29.662
H 23.081 43.439 28.888
C 22.642 44.656 30.514
H 22.085 44.485 31.468
H 23.701 44.539 30.727
H 22.313 45.573 29.98 
C 20.871 43.396 28.974
H 20.201 43.583 29.765
H 20.669 42.386 28.629
C 20.758 44.383 27.779
H 21.655 44.648 27.249
H 20.357 45.264 28.286
C 19.696 43.828 26.737
H 19.381 42.794 26.953
H 20.214 43.921 25.75 
C 18.445 44.714 26.616
H 18.873 45.699 26.411
C 17.662 44.881 27.876
H 16.716 45.442 27.74 
H 17.26  43.958 28.261
H 18.222 45.437 28.585
C 17.546 44.223 25.445
H 17.097 43.224 25.628
H 16.732 44.906 25.138
H 18.151 44.172 24.531
