137

Mg 28.884 28.487 33.505
C 27.014 26.563 31.357
C 31.484 28.454 31.309
H 32.248 28.619 30.531
C 30.701 30.31  35.605
H 31.225 30.907 36.343
C 26.211 28.522 35.662
H 25.331 28.628 36.282
N 29.231 27.607 31.6  
C 28.299 26.864 30.871
C 28.705 26.713 29.474
H 28.53  25.664 29.214
C 30.231 26.981 29.516
H 30.554 27.585 28.694
C 30.353 27.757 30.89 
C 31.122 25.701 29.557
H 30.918 25.047 30.371
H 31.    25.195 28.634
H 32.084 26.093 29.724
C 27.789 27.459 28.474
H 28.229 28.438 28.446
H 26.758 27.592 28.76 
C 28.009 26.861 27.022
H 27.72  27.619 26.341
H 29.061 26.624 26.884
C 27.211 25.613 26.588
O 27.702 24.532 26.27 
O 25.864 25.826 26.8  
N 30.787 29.179 33.564
C 31.738 29.036 32.504
C 33.03  29.67  32.877
C 32.73  30.245 34.183
C 31.363 29.931 34.527
C 34.169 29.792 31.991
H 33.832 30.448 31.157
H 35.13  30.165 32.356
H 34.341 28.773 31.674
C 33.595 31.13  35.09 
H 33.107 31.814 35.844
C 34.948 30.931 35.196
H 35.406 30.264 34.462
H 35.581 31.416 35.983
N 28.583 29.181 35.388
C 29.481 29.951 36.053
C 28.852 30.406 37.297
C 27.616 29.806 37.317
C 27.434 29.142 36.112
C 29.455 31.264 38.314
H 29.793 32.162 37.824
H 28.788 31.575 39.081
H 30.299 30.859 38.891
C 26.494 30.006 38.286
H 25.968 29.13  38.296
H 26.866 30.18  39.329
C 25.561 31.071 37.925
H 25.059 30.945 36.934
H 24.887 31.003 38.704
H 26.095 32.023 38.037
N 27.026 27.743 33.552
C 26.029 27.865 34.428
C 24.836 27.195 34.029
C 25.191 26.632 32.806
C 26.507 27.072 32.553
C 23.508 27.249 34.693
H 23.16  26.317 35.202
H 23.429 28.132 35.37 
H 22.736 27.357 33.871
C 24.719 25.792 31.757
O 23.67  25.24  31.593
C 25.849 25.725 30.699
H 25.478 26.092 29.753
C 26.209 24.273 30.657
O 26.458 23.503 31.62 
O 26.633 23.894 29.35 
C 27.065 22.494 29.204
H 27.489 22.311 28.23 
H 27.871 22.283 29.934
H 26.254 21.791 29.348
C 25.019 24.669 26.468
H 25.544 23.806 26.851
H 24.969 24.515 25.412
C 23.72  24.847 27.209
H 23.255 25.833 27.034
C 23.17  23.968 28.054
C 23.575 22.576 28.498
H 24.296 22.351 27.717
H 24.073 22.651 29.428
H 22.853 21.818 28.413
C 21.884 24.46  28.785
H 21.776 25.511 28.804
H 21.895 24.091 29.762
C 20.55 23.97 28.13
H 20.724 23.466 27.185
H 20.027 24.882 27.729
C 19.654 23.069 28.922
H 20.001 22.941 29.952
H 19.74  22.039 28.522
C 18.148 23.431 28.865
H 17.803 23.702 27.868
C 17.863 24.619 29.787
H 16.746 24.948 29.746
H 18.121 24.369 30.79 
H 18.516 25.468 29.483
C 17.342 22.212 29.211
H 17.53  21.404 28.469
H 16.248 22.527 29.089
C 17.761 21.532 30.531
H 18.286 22.204 31.225
H 18.394 20.67  30.267
C 16.494 21.056 31.247
H 15.61  20.806 30.587
H 16.11  21.857 31.954
C 16.697 19.708 32.006
H 17.077 18.935 31.352
C 15.396 19.085 32.695
H 15.44  18.035 32.97 
H 15.172 19.599 33.622
H 14.633 19.297 31.964
C 17.885 19.718 32.983
H 17.814 20.625 33.55 
H 18.836 19.717 32.426
C 18.167 18.509 33.852
H 19.187 18.138 33.845
H 17.511 17.789 33.535
C 17.873 18.782 35.351
H 16.801 19.168 35.36 
H 18.538 19.649 35.598
C 18.079 17.609 36.397
H 19.145 17.354 36.393
C 17.226 16.362 36.046
H 16.97  15.745 36.869
H 16.318 16.558 35.489
H 17.819 15.635 35.516
C 17.826 18.134 37.813
H 16.88  18.683 37.862
H 17.784 17.255 38.451
H 18.632 18.816 38.039
