137

Mg 20.067 26.403 30.795
C 21.704 24.95  33.577
C 19.494 29.15  32.744
H 19.28  30.022 33.408
C 18.102 27.617 28.388
H 17.409 28.    27.623
C 20.445 23.476 29.109
H 20.548 22.576 28.591
N 20.827 27.121 32.846
C 21.481 26.342 33.721
C 21.78  27.082 34.992
H 21.475 26.459 35.868
C 20.84  28.316 34.838
H 21.492 29.186 34.837
C 20.344 28.195 33.383
C 19.637 28.383 35.868
H 19.302 29.427 35.832
H 18.899 27.711 35.504
H 20.07  28.167 36.848
C 23.269 27.419 35.234
H 23.59  28.082 34.527
H 23.922 26.593 35.109
C 23.556 28.041 36.585
H 22.637 27.881 37.234
H 24.363 27.48  37.106
C 23.778 29.542 36.692
O 24.873 30.093 36.652
O 22.628 30.172 36.802
N 18.938 28.102 30.612
C 18.856 29.147 31.548
C 17.996 30.191 30.983
C 17.697 29.803 29.67 
C 18.286 28.504 29.455
C 17.434 31.371 31.784
H 18.174 32.182 31.839
H 16.582 31.776 31.365
H 17.136 30.935 32.763
C 16.681 30.428 28.675
H 16.15  29.704 27.977
C 16.412 31.749 28.55 
H 17.036 32.476 29.099
H 15.582 32.179 27.95 
N 19.35  25.631 29.078
C 18.596 26.348 28.204
C 18.494 25.621 27.015
C 19.279 24.482 27.147
C 19.762 24.462 28.523
C 17.78  25.957 25.806
H 18.359 26.445 25.057
H 17.502 25.062 25.267
H 16.864 26.478 26.016
C 19.542 23.487 26.043
H 18.919 22.528 26.239
H 19.18  23.821 25.082
C 20.968 23.004 25.959
H 21.216 22.914 24.892
H 21.607 23.769 26.485
H 21.186 22.064 26.493
N 20.971 24.568 31.147
C 20.982 23.434 30.412
C 21.673 22.397 31.087
C 22.03  22.989 32.302
C 21.51  24.293 32.362
C 21.935 20.989 30.644
H 22.822 20.791 31.153
H 21.11  20.263 30.825
H 22.18  20.999 29.588
C 22.684 22.705 33.574
O 23.208 21.691 33.959
C 22.573 23.995 34.365
H 23.607 24.298 34.446
C 22.034 23.603 35.686
O 20.861 23.414 35.91 
O 23.033 23.464 36.663
C 22.662 22.807 37.922
H 21.8   22.14  37.867
H 23.445 22.083 38.214
H 22.45  23.546 38.718
C 22.699 31.597 36.992
H 23.054 32.021 35.997
H 23.167 31.954 37.846
C 21.262 31.946 37.133
H 20.83  31.742 38.141
C 20.361 32.404 36.214
C 20.693 33.123 34.876
H 20.552 32.425 34.12 
H 20.038 33.95  34.74 
H 21.721 33.491 34.78 
C 18.883 32.324 36.473
H 18.887 31.869 37.45 
H 18.532 31.734 35.631
C 18.094 33.636 36.567
H 18.832 34.373 36.592
H 17.466 33.798 37.493
C 17.066 33.791 35.452
H 17.459 33.102 34.62 
H 17.092 34.861 35.168
C 15.564 33.433 35.73 
H 15.201 33.776 36.648
C 15.397 31.856 35.849
H 15.759 31.205 35.055
H 15.704 31.48  36.812
H 14.268 31.859 35.792
C 14.61  34.168 34.653
H 13.612 33.753 34.629
H 15.001 34.202 33.655
C 14.304 35.692 35.022
H 14.902 36.032 35.862
H 13.243 35.659 35.367
C 14.49  36.785 33.97 
H 13.519 37.28  33.711
H 14.836 36.421 33.049
C 15.653 37.843 34.27 
H 16.442 37.169 34.604
C 15.339 38.717 35.505
H 15.58  38.087 36.285
H 15.975 39.549 35.662
H 14.295 39.059 35.436
C 16.123 38.647 32.979
H 16.84  39.347 33.384
H 15.307 39.3   32.678
C 16.79  37.736 31.943
H 16.967 36.769 32.435
H 17.739 38.139 31.687
C 16.168 37.731 30.594
H 16.572 38.368 29.902
H 15.152 38.12  30.78 
C 16.126 36.293 29.872
H 15.66  35.726 30.688
C 17.539 35.739 29.494
H 17.689 34.605 29.698
H 17.784 36.076 28.558
H 18.224 36.136 30.247
C 15.213 36.288 28.685
H 15.102 35.248 28.44 
H 14.306 36.766 28.88 
H 15.804 36.824 27.93 
