137

Mg 25.508 30.708 34.329
C 24.343 30.657 37.569
C 22.378 31.875 33.267
H 21.397 32.196 32.992
C 26.453 30.704 31.09 
H 26.946 30.816 30.127
C 28.605 29.786 35.348
H 29.571 29.593 35.782
N 23.593 31.15  35.29 
C 23.365 31.045 36.633
C 21.932 31.538 36.938
H 21.389 30.722 37.406
C 21.291 31.745 35.569
H 21.003 32.765 35.449
C 22.501 31.509 34.628
C 19.985 30.932 35.301
H 20.308 29.874 35.381
H 19.173 31.122 35.993
H 19.617 31.079 34.283
C 21.894 32.733 37.872
H 22.332 33.63  37.388
H 22.497 32.497 38.73 
C 20.417 33.033 38.313
H 19.782 32.122 38.268
H 20.581 33.3   39.333
C 19.745 34.289 37.858
O 20.262 35.056 37.036
O 18.438 34.395 38.295
N 24.583 31.308 32.447
C 23.33  31.794 32.266
C 23.17  32.202 30.881
C 24.322 31.803 30.239
C 25.191 31.149 31.243
C 21.943 32.876 30.302
H 21.809 33.877 30.698
H 21.939 33.002 29.273
H 21.151 32.264 30.747
C 24.742 31.901 28.802
H 25.385 31.065 28.464
C 24.428 32.928 27.965
H 23.864 33.82  28.336
H 24.783 32.947 26.912
N 27.246 30.185 33.396
C 27.439 30.234 32.025
C 28.741 29.708 31.733
C 29.419 29.613 32.98 
C 28.44  29.873 33.945
C 29.349 29.45  30.388
H 28.652 29.33  29.598
H 30.041 30.232 30.081
H 29.898 28.482 30.41 
C 30.852 29.18  33.078
H 31.025 28.568 33.924
H 31.123 28.587 32.239
C 31.839 30.314 33.224
H 31.61  31.004 34.095
H 32.779 29.796 33.286
H 31.836 30.967 32.317
N 26.374 30.308 36.077
C 27.628 29.963 36.389
C 27.769 29.765 37.841
C 26.451 29.994 38.298
C 25.671 30.328 37.204
C 28.948 29.486 38.71 
H 28.513 29.115 39.677
H 29.524 28.664 38.333
H 29.46  30.462 38.774
C 25.689 30.087 39.545
O 26.057 29.877 40.688
C 24.303 30.656 39.126
H 24.237 31.607 39.573
C 23.37  29.666 39.577
O 23.549 28.493 39.516
O 22.189 30.236 39.991
C 21.107 29.32  40.188
H 20.147 29.863 40.321
H 21.06  28.67  39.327
H 21.393 28.811 41.134
C 17.528 35.197 37.355
H 18.016 35.158 36.362
H 17.316 36.254 37.68 
C 16.238 34.535 37.29 
H 15.553 34.807 38.091
C 15.734 33.693 36.351
C 16.41  33.149 35.102
H 16.016 32.143 34.939
H 16.176 33.753 34.266
H 17.539 33.027 35.234
C 14.28  33.223 36.476
H 13.83  33.707 37.397
H 14.219 32.106 36.535
C 13.282 33.447 35.321
H 12.392 33.072 35.735
H 13.477 32.818 34.44 
C 13.227 34.922 34.954
H 14.094 35.443 35.38 
H 12.308 35.353 35.322
C 13.417 35.156 33.443
H 14.428 34.945 33.195
C 13.268 36.693 33.163
H 13.382 37.027 32.203
H 12.235 37.072 33.428
H 13.953 37.285 33.698
C 12.803 34.249 32.365
H 13.055 33.196 32.567
H 13.112 34.645 31.409
C 11.292 34.307 32.282
H 10.989 34.374 31.188
H 10.833 35.223 32.757
C 10.55  33.015 32.833
H  9.557 33.394 33.261
H 11.095 32.614 33.699
C 10.11  31.856 31.913
H  9.461 32.282 31.105
C  9.148 30.87  32.625
H  8.7   30.147 31.95 
H  9.664 30.412 33.495
H  8.453 31.431 33.199
C 11.26  31.002 31.302
H 11.639 30.352 32.142
H 12.158 31.56  31.012
C 10.903 30.076 30.144
H  9.881 29.835 30.33 
H 11.479 29.134 30.221
C 10.908 30.789 28.788
H 11.708 30.382 28.238
H 10.941 31.929 28.905
C  9.58  30.542 27.957
H  9.358 29.485 27.95 
C  9.855 30.762 26.435
H  8.85  30.746 25.934
H 10.271 31.796 26.408
H 10.557 30.075 25.975
C  8.41  31.369 28.424
H  7.547 31.207 27.732
H  8.139 30.93  29.369
H  8.662 32.419 28.583
