137

Mg 20.155 18.913 22.743
C 23.225 18.835 21.394
C 21.131 21.509 24.773
H 21.474 22.381 25.404
C 17.042 19.105 23.976
H 16.039 19.164 24.419
C 19.228 16.444 20.585
H 19.004 15.768 19.801
N 21.895 20.09  22.968
C 23.099 19.893 22.296
C 24.258 20.811 22.881
H 24.957 20.15  23.28 
C 23.489 21.549 24.006
H 23.561 22.605 23.686
C 22.084 21.045 23.868
C 24.098 21.325 25.418
H 23.891 20.331 25.748
H 25.161 21.5   25.298
H 23.596 22.066 26.066
C 24.998 21.664 21.819
H 24.173 22.088 21.221
H 25.435 21.061 21.013
C 25.909 22.822 22.328
H 25.719 23.04  23.406
H 26.963 22.459 22.23 
C 25.768 24.094 21.579
O 25.898 24.107 20.358
O 25.603 25.182 22.423
N 19.229 20.19  24.058
C 19.791 21.166 24.839
C 18.796 21.668 25.751
C 17.628 21.061 25.389
C 17.945 20.087 24.443
C 19.052 22.714 26.762
H 19.085 23.784 26.327
H 18.437 22.61  27.589
H 20.06  22.514 27.119
C 16.255 21.306 25.916
H 15.502 21.162 25.146
C 15.888 21.71  27.133
H 16.524 21.884 28.002
H 14.907 21.986 27.416
N 18.373 17.939 22.364
C 17.21  18.164 22.977
C 16.213 17.161 22.439
C 16.857 16.352 21.522
C 18.221 16.903 21.447
C 14.827 17.122 22.852
H 14.506 16.106 22.72 
H 14.65  17.528 23.857
H 14.337 17.744 22.176
C 16.271 15.202 20.684
H 16.942 14.398 20.717
H 15.377 14.792 21.183
C 15.843 15.511 19.229
H 15.538 14.607 18.841
H 15.025 16.176 19.278
H 16.67  15.94  18.642
N 20.964 17.977 21.187
C 20.484 16.909 20.409
C 21.418 16.57  19.394
C 22.545 17.203 19.798
C 22.192 18.08  20.865
C 21.347 15.501 18.405
H 21.162 16.073 17.471
H 22.307 14.999 18.434
H 20.598 14.741 18.555
C 23.944 17.349 19.594
O 24.694 16.861 18.778
C 24.458 18.386 20.644
H 24.738 19.279 20.146
C 25.682 17.977 21.349
O 25.747 17.323 22.363
O 26.784 18.512 20.794
C 28.137 18.332 21.244
H 28.498 17.513 21.78 
H 28.907 18.448 20.455
H 28.239 19.119 21.936
C 25.519 26.459 21.652
H 24.706 26.468 20.873
H 26.487 26.659 21.1  
C 25.209 27.503 22.68 
H 24.219 27.977 22.708
C 26.154 28.112 23.466
C 27.622 27.751 23.739
H 28.336 28.533 23.524
H 27.829 27.639 24.821
H 27.887 26.743 23.339
C 25.731 29.104 24.503
H 26.08  28.819 25.471
H 24.613 28.982 24.626
C 26.233 30.5   24.278
H 26.906 30.631 23.466
H 26.827 30.793 25.09 
C 25.036 31.528 24.118
H 24.134 31.05  24.408
H 24.962 31.708 23.001
C 25.181 32.852 24.929
H 26.169 33.326 24.688
C 25.224 32.56  26.499
H 24.299 32.051 26.818
H 26.097 31.96  26.794
H 25.343 33.532 27.007
C 24.075 33.856 24.498
H 24.197 34.788 25.124
H 23.071 33.515 24.758
C 24.046 34.242 23.031
H 23.218 33.721 22.61 
H 24.915 33.926 22.518
C 23.868 35.755 22.909
H 24.882 36.132 22.783
H 23.548 36.181 23.869
C 22.898 36.206 21.767
H 23.168 35.525 20.942
C 23.28  37.677 21.294
H 23.103 37.778 20.245
H 22.775 38.467 21.954
H 24.33  37.777 21.246
C 21.368 36.09  21.973
H 21.14  36.843 22.763
H 21.252 35.144 22.482
C 20.594 36.212 20.649
H 20.074 35.2   20.553
H 21.324 36.327 19.91 
C 19.367 37.203 20.752
H 19.201 37.373 21.824
H 18.452 36.836 20.271
C 19.8   38.594 20.17 
H 20.74  38.926 20.67 
C 18.682 39.617 20.545
H 18.587 39.909 21.592
H 18.725 40.556 20.026
H 17.777 39.109 20.189
C 20.019 38.469 18.618
H 20.505 37.509 18.276
H 19.016 38.454 18.098
H 20.595 39.357 18.18 
