137

Mg 34.355 26.673 31.895
C 30.889 26.225 32.101
C 34.426 24.505 29.312
H 34.514 23.682 28.601
C 37.474 27.305 31.694
H 38.461 27.569 31.402
C 34.221 28.018 35.202
H 34.218 28.467 36.176
N 32.799 25.505 30.848
C 31.419 25.431 31.095
C 30.651 24.54  30.08 
H 30.217 23.67  30.533
C 31.878 23.929 29.308
H 31.814 24.191 28.203
C 33.149 24.628 29.86 
C 31.919 22.396 29.16 
H 32.776 21.923 28.63 
H 31.765 21.921 30.125
H 31.125 22.134 28.56 
C 29.603 25.256 29.189
H 30.112 26.059 28.612
H 29.051 25.941 29.822
C 28.7   24.442 28.308
H 29.008 24.778 27.306
H 28.93  23.347 28.37 
C 27.29  24.778 28.498
O 26.392 23.98  28.852
O 27.116 26.11  28.29 
N 35.714 25.974 30.78 
C 35.611 25.039 29.753
C 36.799 24.863 29.015
C 37.686 25.827 29.588
C 36.947 26.429 30.689
C 37.033 23.917 27.854
H 37.114 22.831 28.002
H 36.317 24.127 27.09 
H 38.071 24.031 27.462
C 39.083 26.194 29.231
H 39.295 27.226 28.961
C 40.032 25.27  29.175
H 39.927 24.226 29.516
H 41.028 25.537 28.791
N 35.72  27.535 33.244
C 36.97  27.757 32.931
C 37.515 28.644 33.932
C 36.627 28.8   34.947
C 35.446 28.043 34.505
C 38.879 29.194 33.764
H 38.993 30.215 34.123
H 39.686 28.615 34.165
H 39.127 29.329 32.72 
C 36.739 29.596 36.208
H 36.408 28.973 37.055
H 37.834 29.791 36.369
C 35.964 30.938 36.082
H 35.698 31.293 37.102
H 36.514 31.684 35.528
H 34.988 30.739 35.536
N 32.892 27.258 33.258
C 32.987 27.714 34.602
C 31.649 27.894 35.175
C 30.792 27.432 34.157
C 31.633 26.942 33.062
C 31.265 28.433 36.473
H 31.991 28.105 37.196
H 31.134 29.497 36.426
H 30.361 27.888 36.721
C 29.402 27.247 33.744
O 28.382 27.468 34.367
C 29.436 26.576 32.332
H 29.026 27.252 31.619
C 28.552 25.444 32.494
O 28.741 24.463 33.188
O 27.348 25.673 31.848
C 26.266 24.795 32.305
H 25.438 24.98  31.649
H 26.665 23.742 32.202
H 25.945 24.99  33.306
C 25.719 26.54  28.316
H 25.308 26.467 29.396
H 25.073 25.839 27.703
C 25.642 28.01  27.775
H 25.652 28.201 26.725
C 25.414 29.162 28.478
C 25.41  29.281 29.99 
H 25.892 28.439 30.519
H 26.08  30.13  30.273
H 24.392 29.499 30.294
C 25.191 30.473 27.69 
H 25.692 30.345 26.683
H 25.784 31.271 28.124
C 23.64  30.737 27.584
H 23.331 31.732 27.902
H 23.16  30.093 28.314
C 22.981 30.302 26.234
H 22.778 29.254 26.383
H 23.71  30.471 25.428
C 21.499 30.915 25.973
H 21.453 32.004 25.923
C 20.544 30.435 27.14 
H 19.503 30.726 27.035
H 20.613 29.296 27.139
H 20.948 30.78  28.141
C 20.973 30.536 24.58 
H 19.954 30.978 24.375
H 20.846 29.501 24.568
C 21.885 30.723 23.384
H 22.318 29.755 23.237
H 22.654 31.463 23.658
C 21.018 30.968 22.115
H 20.344 31.823 22.292
H 20.279 30.201 22.098
C 21.829 31.15  20.779
H 22.404 30.267 20.653
C 22.536 32.51  20.907
H 23.157 32.674 19.995
H 21.852 33.289 21.279
H 23.338 32.44  21.666
C 20.815 31.187 19.513
H 20.419 32.194 19.608
H 19.947 30.549 19.772
C 21.433 30.675 18.197
H 21.396 29.573 18.113
H 22.514 30.793 18.303
C 20.825 31.328 16.927
H 19.84  31.842 17.166
H 20.58  30.505 16.304
C 21.751 32.347 16.093
H 22.709 31.809 16.091
C 21.943 33.72  16.835
H 21.087 34.118 17.25 
H 22.62  33.699 17.734
H 22.419 34.446 16.153
C 21.157 32.609 14.644
H 21.694 33.341 14.01 
H 21.283 31.641 14.082
H 20.111 32.959 14.639
