137

Mg 21.007 18.357 31.178
C 24.25  17.836 30.009
C 21.283 21.76  30.476
H 21.442 22.812 30.244
C 17.78  18.803 31.983
H 16.711 19.015 32.143
C 20.631 14.833 31.457
H 20.534 13.85  31.627
N 22.558 19.636 30.298
C 23.815 19.257 29.87 
C 24.674 20.438 29.462
H 25.452 20.497 30.303
C 23.715 21.661 29.588
H 23.432 22.073 28.654
C 22.409 20.998 30.204
C 24.271 22.774 30.576
H 25.323 22.995 30.185
H 23.631 23.697 30.434
H 24.442 22.402 31.595
C 25.491 20.343 28.204
H 24.842 20.585 27.371
H 25.803 19.316 28.028
C 26.733 21.289 28.237
H 27.027 21.677 29.225
H 27.541 20.648 27.931
C 26.656 22.421 27.251
O 27.35  22.593 26.258
O 25.625 23.202 27.697
N 19.815 19.99  31.284
C 20.069 21.264 30.923
C 19.001 22.087 31.456
C 17.935 21.275 31.911
C 18.484 19.933 31.671
C 19.079 23.635 31.477
H 18.277 24.065 32.068
H 20.001 23.895 31.944
H 19.046 24.059 30.472
C 16.538 21.616 32.254
H 16.035 20.86  32.821
C 15.772 22.544 31.659
H 16.267 23.238 30.992
H 14.708 22.748 31.832
N 19.495 17.159 31.737
C 18.207 17.497 32.084
C 17.342 16.347 32.266
C 18.206 15.256 32.154
C 19.527 15.744 31.73 
C 15.902 16.395 32.527
H 15.617 17.333 32.94 
H 15.255 16.057 31.752
H 15.712 15.6   33.308
C 17.903 13.721 32.164
H 18.386 13.224 31.338
H 18.438 13.191 33.044
C 16.39  13.303 32.016
H 16.249 12.192 31.748
H 15.755 13.545 32.82 
H 16.017 13.817 31.152
N 22.114 16.686 30.848
C 21.883 15.305 31.1  
C 23.082 14.565 30.806
C 24.03  15.542 30.473
C 23.412 16.796 30.449
C 23.282 13.105 30.737
H 22.948 12.707 29.799
H 24.336 12.879 30.981
H 22.682 12.706 31.554
C 25.395 15.648 30.039
O 26.247 14.825 29.636
C 25.585 17.149 29.733
H 25.748 17.31  28.664
C 26.763 17.474 30.639
O 26.766 17.406 31.876
O 27.774 17.85  29.814
C 29.033 18.145 30.465
H 29.404 17.265 30.985
H 29.719 18.448 29.716
H 28.89  18.968 31.214
C 25.226 24.179 26.606
H 25.01  23.597 25.698
H 26.022 24.935 26.39 
C 24.013 24.878 27.012
H 23.948 25.155 28.143
C 22.954 25.328 26.301
C 22.842 25.17  24.778
H 23.877 25.188 24.4  
H 22.475 24.18  24.587
H 22.234 25.953 24.296
C 21.845 26.184 26.933
H 21.8   25.867 27.96 
H 20.811 25.885 26.623
C 22.211 27.677 26.953
H 23.131 27.713 26.435
H 22.393 27.962 28.012
C 21.184 28.536 26.369
H 20.445 27.886 25.899
H 21.788 29.038 25.699
C 20.537 29.62  27.295
H 21.282 30.171 27.799
C 19.591 28.919 28.366
H 18.883 28.283 27.917
H 20.215 28.409 29.07 
H 19.14  29.703 28.873
C 19.702 30.503 26.349
H 18.922 29.989 25.803
H 20.449 30.978 25.678
C 19.115 31.722 27.053
H 19.726 32.632 26.867
H 18.925 31.562 28.114
C 17.733 32.081 26.452
H 17.183 31.225 26.207
H 17.82  32.676 25.578
C 16.871 33.148 27.224
H 17.492 34.053 27.361
C 16.409 32.611 28.577
H 15.696 31.876 28.614
H 17.303 32.233 29.067
H 15.956 33.368 29.203
C 15.674 33.656 26.392
H 14.811 32.966 26.45 
H 15.936 33.732 25.36 
C 15.06  35.005 26.898
H 15.635 35.542 27.671
H 14.128 34.728 27.271
C 14.641 35.917 25.7  
H 13.616 36.201 25.823
H 14.685 35.322 24.813
C 15.337 37.36  25.625
H 15.215 37.919 26.55 
C 14.808 38.162 24.478
H 15.342 39.175 24.37 
H 14.858 37.629 23.527
H 13.765 38.407 24.777
C 16.862 37.154 25.518
H 16.923 36.486 24.605
H 17.488 38.081 25.428
H 17.253 36.654 26.341
