137

Mg 35.199 32.478 36.288
C 32.049 33.158 35.091
C 35.225 29.719 34.169
H 35.166 28.897 33.551
C 38.49  32.025 37.023
H 39.518 31.871 37.24 
C 35.165 35.433 38.034
H 35.124 36.353 38.634
N 33.705 31.425 34.987
C 32.495 31.915 34.642
C 31.68  30.91  33.835
H 30.829 30.516 34.386
C 32.632 29.647 33.755
H 32.681 29.331 32.69 
C 33.869 30.246 34.344
C 32.21  28.287 34.358
H 31.272 28.013 33.961
H 32.936 27.527 34.15 
H 32.053 28.213 35.433
C 31.19 31.46 32.38
H 32.006 31.904 31.752
H 30.457 32.321 32.466
C 30.362 30.416 31.512
H 31.099 30.084 30.813
H 30.095 29.547 32.109
C 29.176 30.823 30.808
O 29.006 30.915 29.629
O 28.226 31.215 31.678
N 36.666 31.172 35.655
C 36.421 30.132 34.802
C 37.622 29.312 34.689
C 38.634 29.933 35.465
C 37.99  31.135 36.095
C 37.835 28.089 33.747
H 38.173 28.321 32.765
H 38.555 27.37  34.186
H 36.854 27.595 33.757
C 40.054 29.641 35.687
H 40.522 29.967 36.642
C 40.877 28.986 34.796
H 40.543 28.62  33.826
H 41.949 28.775 34.989
N 36.534 33.503 37.358
C 37.812 33.13  37.61 
C 38.386 34.084 38.592
C 37.512 35.103 38.818
C 36.355 34.74  38.075
C 39.845 33.974 39.159
H 39.918 34.452 40.093
H 40.151 32.99  39.397
H 40.418 34.341 38.369
C 37.698 36.481 39.544
H 36.923 36.621 40.273
H 38.678 36.575 40.117
C 37.459 37.676 38.574
H 36.507 37.877 38.213
H 37.745 38.598 39.094
H 38.191 37.498 37.778
N 33.916 33.967 36.502
C 34.026 35.085 37.271
C 32.804 35.895 37.14 
C 32.002 35.143 36.284
C 32.683 33.978 35.947
C 32.559 37.224 37.802
H 33.441 37.791 37.641
H 31.731 37.81  37.271
H 32.339 37.113 38.821
C 30.785 35.159 35.557
O 29.992 36.037 35.394
C 30.725 33.837 34.872
H 30.456 33.882 33.838
C 29.612 33.13  35.6  
O 29.48  33.196 36.792
O 28.745 32.408 34.777
C 27.584 31.673 35.422
H 26.814 32.335 35.559
H 27.292 30.926 34.636
H 27.873 31.109 36.291
C 26.938 31.637 30.932
H 26.601 30.702 30.455
H 27.026 32.461 30.249
C 26.083 32.298 31.982
H 26.399 33.322 32.163
C 24.845 31.992 32.368
C 24.225 30.566 32.18 
H 23.972 30.139 33.197
H 23.406 30.455 31.456
H 25.01  29.89  31.798
C 23.891 32.824 33.282
H 24.372 33.631 33.854
H 23.555 32.102 33.944
C 22.73  33.503 32.616
H 22.464 32.872 31.798
H 23.156 34.446 32.234
C 21.561 33.871 33.569
H 21.602 34.936 33.774
H 21.599 33.275 34.438
C 20.167 33.625 32.836
H 20.129 32.556 32.579
C 20.026 34.33  31.477
H 20.45  35.325 31.584
H 20.649 33.85  30.768
H 18.992 34.396 31.055
C 18.883 33.888 33.661
H 18.028 33.96  32.917
H 18.954 34.813 34.162
C 18.513 32.851 34.677
H 17.948 33.363 35.458
H 19.459 32.535 35.068
C 17.858 31.573 34.168
H 18.685 30.9   34.053
H 17.474 31.796 33.21 
C 16.812 30.936 35.078
H 16.008 31.632 35.178
C 17.375 30.774 36.497
H 18.427 30.567 36.524
H 17.22  31.676 37.031
H 16.834 30.077 37.15 
C 16.407 29.449 34.72 
H 15.717 29.112 35.422
H 17.228 28.866 34.662
C 15.644 29.147 33.398
H 15.725 30.057 32.773
H 14.6   29.024 33.541
C 16.185 27.917 32.548
H 16.971 27.322 33.087
H 16.682 28.395 31.705
C 15.02  26.973 32.122
H 14.32  27.564 31.602
C 14.442 26.262 33.406
H 13.775 25.477 33.105
H 15.271 25.727 33.834
H 13.944 26.969 34.037
C 15.392 25.973 31.038
H 14.544 25.362 30.638
H 15.8   26.496 30.147
H 16.161 25.329 31.473
