137

Mg 26.335 33.765 32.965
C 25.83  32.097 35.925
C 22.875 33.807 32.63 
H 21.77  33.822 32.416
C 26.705 35.399 29.979
H 26.82  35.89  29.016
C 29.592 33.981 33.492
H 30.691 33.989 33.597
N 24.567 32.939 34.138
C 24.582 32.364 35.324
C 23.202 31.831 35.797
H 23.167 30.705 35.895
C 22.312 32.401 34.618
H 21.583 33.071 34.985
C 23.29  33.17  33.806
C 21.568 31.299 33.819
H 22.221 30.41  33.505
H 20.699 30.9   34.391
H 21.145 31.792 32.939
C 22.758 32.371 37.199
H 22.797 33.496 37.156
H 23.385 32.084 38.081
C 21.316 31.968 37.592
H 20.646 31.685 36.753
H 21.427 31.156 38.351
C 20.577 33.128 38.371
O 20.751 33.329 39.552
O 19.552 33.687 37.598
N 25.056 34.343 31.465
C 23.636 34.289 31.582
C 23.092 34.916 30.38 
C 24.142 35.287 29.575
C 25.374 35.027 30.321
C 21.587 35.015 30.17 
H 21.182 33.994 30.347
H 20.954 35.739 30.731
H 21.366 35.279 29.15 
C 24.043 35.955 28.272
H 24.841 35.856 27.602
C 23.07  36.878 27.96 
H 22.31  37.107 28.668
H 23.099 37.443 26.978
N 27.895 34.546 31.882
C 27.878 35.143 30.653
C 29.249 35.586 30.302
C 30.091 35.142 31.308
C 29.19  34.532 32.315
C 29.637 36.237 28.962
H 29.694 37.334 29.073
H 30.61  35.882 28.688
H 28.932 36.007 28.174
C 31.577 35.183 31.355
H 31.886 34.345 31.969
H 31.931 35.046 30.311
C 32.041 36.48  31.984
H 31.535 36.698 32.945
H 33.13  36.262 32.198
H 32.013 37.267 31.293
N 27.494 33.217 34.354
C 28.867 33.237 34.412
C 29.37  32.358 35.528
C 28.204 31.967 36.178
C 27.08  32.491 35.43 
C 30.783 32.125 35.815
H 30.921 31.21  36.428
H 31.398 31.82  34.932
H 31.208 32.982 36.341
C 27.69  31.255 37.23 
O 28.249 30.54  38.025
C 26.1   31.306 37.213
H 25.877 31.909 38.095
C 25.578 29.9   37.371
O 25.4   29.026 36.571
O 25.099 29.834 38.666
C 24.535 28.507 38.93 
H 23.724 28.242 38.247
H 25.352 27.762 38.951
H 24.135 28.596 39.918
C 18.642 34.526 38.347
H 19.093 35.274 39.078
H 17.987 33.948 39.013
C 17.781 35.153 37.332
H 18.347 35.971 36.885
C 16.49  35.031 37.017
C 15.567 33.945 37.688
H 15.059 33.507 36.765
H 16.155 33.124 38.195
H 14.835 34.382 38.372
C 15.839 36.018 36.031
H 16.565 36.447 35.398
H 15.507 36.837 36.707
C 14.75  35.608 35.06 
H 13.893 35.419 35.656
H 15.071 34.631 34.639
C 14.508 36.573 33.846
H 15.246 37.278 33.792
H 13.545 37.04  34.011
C 14.394 35.904 32.425
H 15.389 35.413 32.289
C 14.3   36.942 31.311
H 14.129 36.431 30.421
H 13.52  37.725 31.328
H 15.249 37.551 31.266
C 13.211 34.859 32.348
H 13.375 34.019 32.957
H 13.211 34.524 31.352
C 11.724 35.463 32.578
H 11.193 35.183 31.699
H 11.841 36.511 32.633
C 11.049 34.856 33.84 
H 10.665 35.666 34.405
H 11.903 34.445 34.448
C  9.925 33.854 33.676
H  9.214 34.317 33.076
C  9.312 33.609 35.059
H  8.735 34.504 35.365
H  8.477 32.923 35.117
H 10.107 33.369 35.822
C 10.474 32.605 32.903
H 11.333 32.247 33.461
H 10.884 32.912 31.969
C  9.379 31.453 32.64 
H  8.381 31.806 33.008
H  9.642 30.531 33.183
C  9.249 31.071 31.186
H  9.041 30.021 31.158
H 10.194 31.274 30.62 
C  8.139 31.755 30.413
H  7.177 31.557 30.854
C  8.025 31.05  29.032
H  7.253 31.494 28.436
H  8.907 31.282 28.458
H  8.034 29.959 29.091
C  8.193 33.249 30.335
H  7.29  33.489 29.721
H  8.081 33.71  31.31 
H  9.096 33.537 29.873
