137

Mg 30.432 30.172 39.291
C 27.094 30.1   40.108
C 29.563 29.107 36.161
H 29.279 28.806 35.222
C 33.6   30.75  38.403
H 34.562 31.043 38.013
C 31.2   30.58  42.647
H 31.376 30.74  43.696
N 28.545 29.659 38.248
C 27.33  29.827 38.772
C 26.222 29.536 37.819
H 25.561 28.708 38.045
C 27.076 28.887 36.655
H 26.885 29.335 35.714
C 28.472 29.363 36.95 
C 26.844 27.333 36.506
H 25.793 27.035 36.303
H 27.534 26.913 35.771
H 27.192 26.843 37.384
C 25.464 30.771 37.357
H 26.003 31.195 36.504
H 25.352 31.53  38.12 
C 24.148 30.427 36.732
H 23.517 29.794 37.413
H 23.718 31.501 36.782
C 23.937 29.907 35.333
O 23.85  30.604 34.346
O 23.895 28.486 35.391
N 31.417 29.901 37.606
C 30.907 29.398 36.397
C 32.049 29.248 35.419
C 33.218 29.749 36.053
C 32.772 30.159 37.427
C 31.941 28.56  34.139
H 31.23  27.708 34.236
H 31.515 29.244 33.375
H 32.834 28.059 33.8  
C 34.592 29.927 35.526
H 35.406 29.974 36.24 
C 34.875 29.942 34.201
H 34.221 29.79  33.285
H 35.965 30.072 34.008
N 32.155 30.683 40.402
C 33.293 30.987 39.807
C 34.336 31.203 40.815
C 33.774 30.985 42.11 
C 32.342 30.711 41.768
C 35.733 31.592 40.392
H 36.155 30.728 39.812
H 35.694 32.517 39.804
H 36.295 31.657 41.325
C 34.384 31.045 43.448
H 33.833 30.514 44.202
H 35.432 30.715 43.383
C 34.39 32.43 43.94
H 35.065 32.534 44.774
H 34.759 33.051 43.138
H 33.389 32.738 44.275
N 29.406 30.404 40.932
C 29.83  30.555 42.26 
C 28.762 30.66  43.145
C 27.615 30.5   42.339
C 28.121 30.273 41.019
C 28.827 30.831 44.616
H 27.759 31.029 45.01 
H 29.318 29.985 45.16 
H 29.471 31.664 44.797
C 26.095 30.439 42.303
O 25.343 30.454 43.243
C 25.769 30.258 40.852
H 25.193 31.114 40.455
C 25.024 28.979 40.818
O 25.511 27.832 40.688
O 23.722 29.299 40.74 
C 22.884 28.214 40.285
H 21.817 28.581 40.393
H 22.975 27.911 39.243
H 22.97  27.381 40.905
C 23.655 27.87  34.046
H 24.412 27.956 33.319
H 22.829 28.486 33.575
C 23.265 26.361 34.177
H 23.352 25.933 35.17 
C 22.499 25.619 33.308
C 22.422 26.008 31.813
H 22.633 25.241 31.163
H 21.397 26.332 31.594
H 23.076 26.811 31.52 
C 21.832 24.337 33.718
H 22.194 24.193 34.736
H 22.298 23.644 33.07 
C 20.301 24.243 33.654
H 19.864 25.252 33.598
H 20.08  23.68  34.555
C 19.848 23.462 32.4  
H 20.594 22.687 32.15 
H 19.834 24.278 31.652
C 18.501 22.704 32.679
H 18.645 21.951 33.45 
C 18.019 21.847 31.397
H 17.131 21.23  31.665
H 17.749 22.566 30.604
H 18.803 21.153 31.007
C 17.352 23.742 33.185
H 17.803 24.11  34.103
H 16.455 23.064 33.387
C 16.929 24.871 32.232
H 17.473 24.883 31.303
H 17.198 25.725 32.792
C 15.499 24.858 31.887
H 15.142 23.779 31.86 
H 15.466 25.128 30.809
C 14.663 25.848 32.632
H 15.136 26.806 32.591
C 14.573 25.525 34.139
H 13.85  24.687 34.175
H 15.482 25.152 34.631
H 14.141 26.326 34.76 
C 13.175 25.982 32.098
H 12.583 25.05  32.241
H 13.368 26.05  30.99 
C 12.442 27.22  32.563
H 12.904 28.111 32.153
H 12.366 27.334 33.659
C 11.018 27.27  32.006
H 10.717 26.287 31.651
H 11.06  27.918 31.151
C  9.884 27.779 32.931
H 10.196 27.493 33.925
C  8.458 27.089 32.698
H  8.53  26.021 32.986
H  7.819 27.469 33.485
H  8.148 27.318 31.682
C  9.836 29.351 33.052
H 10.907 29.735 33.114
H  9.301 29.705 32.122
H  9.215 29.601 33.857
