137

Mg 30.447 33.19  34.091
C 28.64  33.585 36.914
C 27.432 32.935 32.369
H 26.504 32.808 31.866
C 32.182 32.604 31.294
H 32.732 32.478 30.336
C 33.382 33.233 35.952
H 34.311 33.371 36.435
N 28.336 33.346 34.615
C 27.805 33.512 35.862
C 26.245 33.538 35.876
H 25.866 32.865 36.677
C 25.879 33.173 34.402
H 25.182 33.954 33.968
C 27.287 33.166 33.718
C 25.299 31.661 34.375
H 25.06  31.511 33.377
H 26.058 31.054 34.782
H 24.366 31.644 34.88 
C 25.599 34.877 36.364
H 26.095 35.648 35.771
H 25.772 35.042 37.368
C 24.084 34.96  36.104
H 23.768 33.973 35.726
H 23.586 35.13  37.09 
C 23.739 36.004 35.153
O 24.078 37.138 35.223
O 22.632 35.605 34.351
N 29.893 33.072 32.135
C 28.598 32.871 31.609
C 28.678 32.662 30.187
C 30.01  32.556 29.866
C 30.809 32.802 31.122
C 27.411 32.6   29.262
H 27.7   31.941 28.404
H 26.523 32.258 29.745
H 27.335 33.655 28.843
C 30.702 32.257 28.537
H 31.666 31.698 28.502
C 30.143 32.656 27.366
H 29.271 33.301 27.386
H 30.745 32.453 26.469
N 32.409 32.849 33.695
C 32.955 32.776 32.428
C 34.43  32.67  32.511
C 34.73  32.759 33.886
C 33.499 32.969 34.593
C 35.386 32.566 31.332
H 36.365 32.879 31.619
H 35.287 31.636 30.864
H 34.865 33.341 30.718
C 36.167 32.753 34.5  
H 36.317 32.061 35.311
H 36.839 32.389 33.801
C 36.613 34.131 34.999
H 36.081 34.321 35.88 
H 37.679 34.151 35.201
H 36.358 34.915 34.298
N 30.867 33.268 35.94 
C 32.102 33.294 36.593
C 31.949 33.478 38.071
C 30.596 33.39  38.161
C 29.991 33.459 36.918
C 32.918 33.704 39.202
H 32.716 33.057 40.009
H 33.884 33.619 38.723
H 32.812 34.637 39.669
C 29.521 33.605 39.133
O 29.601 33.629 40.379
C 28.218 33.73  38.331
H 27.815 34.644 38.574
C 27.422 32.632 38.826
O 27.553 31.5   38.418
O 26.632 33.004 39.879
C 26.107 31.85  40.595
H 25.454 31.264 40.038
H 26.842 31.2   41.075
H 25.548 32.31  41.346
C 21.984 36.684 33.609
H 22.696 37.307 32.993
H 21.436 37.364 34.267
C 21.158 36.013 32.539
H 21.408 34.965 32.439
C 20.064 36.434 31.951
C 19.576 37.87  32.136
H 18.755 37.75  32.783
H 20.404 38.471 32.692
H 19.251 38.285 31.192
C 19.333 35.515 31.031
H 19.933 34.644 30.745
H 19.172 35.997 30.097
C 17.972 34.887 31.445
H 17.801 35.129 32.467
H 17.993 33.805 31.337
C 16.857 35.381 30.529
H 17.146 36.398 30.277
H 15.873 35.457 30.97 
C 16.67  34.576 29.195
H 17.734 34.403 28.807
C 15.843 35.372 28.126
H 16.306 36.363 27.958
H 15.787 34.804 27.197
H 14.834 35.62  28.468
C 15.966 33.227 29.408
H 16.768 32.532 29.555
H 15.547 32.881 28.455
C 14.97  33.059 30.524
H 14.736 33.973 30.951
H 15.36  32.353 31.298
C 13.612 32.547 29.999
H 13.521 32.437 28.935
H 12.877 33.27  30.254
C 13.098 31.285 30.755
H 13.176 31.551 31.764
C 14.136 30.167 30.68 
H 14.465 30.029 29.632
H 15.073 30.229 31.288
H 13.667 29.222 30.947
C 11.672 30.819 30.313
H 11.692 30.229 29.409
H 11.067 31.633 30.135
C 10.863 29.96  31.334
H  9.931 30.548 31.528
H 11.541 29.934 32.161
C 10.522 28.549 30.798
H 10.427 27.892 31.652
H 11.368 28.272 30.124
C  9.196 28.497 30.055
H  8.45  29.104 30.587
C  8.626 27.04  29.982
H  7.602 27.115 29.532
H  9.295 26.507 29.434
H  8.527 26.566 31.006
C  9.24  29.167 28.717
H  8.364 28.971 28.087
H  9.348 30.248 28.853
H 10.102 28.777 28.168
