137

Mg 30.343 32.289 33.636
C 27.992 31.242 35.946
C 27.882 31.984 31.22 
H 27.278 31.775 30.367
C 32.435 33.525 31.246
H 33.19  33.821 30.484
C 32.689 32.883 36.163
H 33.402 32.903 36.987
N 28.236 31.758 33.58 
C 27.451 31.22  34.639
C 25.99  30.807 34.278
H 25.847 29.783 34.626
C 26.079 30.982 32.734
H 25.489 31.863 32.361
C 27.47  31.562 32.493
C 25.805 29.771 31.844
H 25.695 30.058 30.778
H 26.642 29.058 31.969
H 24.896 29.354 32.23 
C 24.822 31.707 34.999
H 24.994 32.794 34.752
H 25.079 31.613 36.001
C 23.287 31.261 34.876
H 23.184 30.364 34.329
H 22.921 31.036 35.891
C 22.335 32.226 34.291
O 22.638 33.031 33.465
O 21.032 31.963 34.757
N 30.202 32.666 31.575
C 29.111 32.482 30.838
C 29.392 32.882 29.482
C 30.7   33.378 29.476
C 31.178 33.178 30.829
C 28.392 32.739 28.301
H 28.509 33.455 27.534
H 28.651 31.779 27.827
H 27.335 32.871 28.601
C 31.51  33.881 28.442
H 32.118 34.759 28.619
C 31.441 33.409 27.184
H 30.834 32.506 26.894
H 32.071 33.787 26.366
N 32.214 32.987 33.714
C 32.921 33.432 32.602
C 34.306 33.853 33.078
C 34.342 33.67  34.472
C 33.06  33.155 34.828
C 35.302 34.439 32.176
H 35.693 35.307 32.635
H 36.122 33.791 31.819
H 34.799 34.935 31.343
C 35.445 34.07  35.399
H 35.575 33.284 36.119
H 36.355 34.094 34.812
C 35.205 35.375 36.068
H 34.125 35.583 36.326
H 35.763 35.355 36.995
H 35.616 36.059 35.364
N 30.413 32.107 35.672
C 31.414 32.407 36.637
C 30.964 32.058 37.932
C 29.661 31.573 37.633
C 29.359 31.64  36.315
C 31.664 32.202 39.304
H 32.205 33.133 39.541
H 31.016 31.913 40.107
H 32.383 31.473 39.276
C 28.486 31.005 38.291
O 28.299 30.674 39.503
C 27.383 30.951 37.281
H 26.651 31.689 37.627
C 26.718 29.593 37.557
O 27.137 28.441 37.22 
O 25.493 29.743 38.228
C 24.64  28.53  38.401
H 24.448 28.116 37.402
H 25.107 27.705 38.96 
H 23.733 29.001 38.839
C 20.008 32.985 34.339
H 20.494 33.951 34.201
H 19.311 33.047 35.161
C 19.352 32.63  33.016
H 19.911 31.895 32.409
C 18.134 33.074 32.533
C 17.249 34.179 33.096
H 17.166 35.133 32.527
H 16.281 33.759 33.318
H 17.671 34.423 34.073
C 17.505 32.562 31.247
H 18.262 31.914 30.744
H 17.325 33.4   30.555
C 16.211 31.725 31.434
H 15.798 31.828 32.472
H 16.491 30.72  31.312
C 15.146 31.939 30.314
H 15.479 32.648 29.552
H 14.317 32.441 30.828
C 14.337 30.639 29.894
H 14.198 30.128 30.817
C 15.071 29.739 28.951
H 15.887 29.265 29.449
H 14.368 28.968 28.581
H 15.438 30.353 28.097
C 12.92  30.975 29.356
H 12.433 31.595 30.056
H 12.449 29.972 29.255
C 12.895 31.762 28.028
H 13.925 31.977 27.728
H 12.406 32.759 28.213
C 12.097 31.015 26.875
H 12.079 29.919 27.098
H 12.687 31.239 25.99 
C 10.658 31.431 26.685
H 10.712 32.477 26.369
C  9.793 31.147 27.977
H  9.934 30.091 28.174
H 10.068 31.625 28.886
H  8.719 31.425 27.839
C  9.844 30.674 25.545
H  9.774 29.62  25.801
H 10.445 30.805 24.649
C  8.446 31.172 25.2  
H  8.491 31.533 24.209
H  8.083 31.988 25.907
C  7.314 30.1   25.236
H  7.728 29.142 25.574
H  7.052 29.828 24.263
C  5.993 30.424 25.894
H  6.237 30.675 26.926
C  5.113 29.181 25.928
H  5.581 28.509 26.605
H  4.149 29.459 26.309
H  5.065 28.855 24.893
C  5.199 31.537 25.123
H  5.875 32.38  24.926
H  5.103 31.315 24.066
H  4.258 31.722 25.587
