137

Mg 26.161 31.445 37.727
C 24.104 31.472 40.463
C 23.853 33.284 35.985
H 23.076 33.912 35.547
C 28.518 32.082 35.193
H 29.221 32.188 34.415
C 28.656 29.991 39.645
H 29.416 29.53  40.292
N 24.24  32.233 38.178
C 23.535 32.094 39.337
C 22.135 32.723 39.269
H 21.412 31.959 39.499
C 22.109 33.142 37.752
H 21.958 34.229 37.651
C 23.485 32.895 37.329
C 21.005 32.397 36.957
H 20.991 31.366 37.214
H 20.027 32.82  37.309
H 21.019 32.527 35.906
C 21.905 33.858 40.314
H 22.586 34.637 40.231
H 22.062 33.41  41.304
C 20.44  34.375 40.131
H 19.777 33.5   40.016
H 20.178 34.766 41.123
C 20.104 35.433 39.16 
O 20.696 36.499 39.116
O 19.092 35.01  38.347
N 26.144 32.385 35.862
C 25.096 33.156 35.413
C 25.475 33.636 34.083
C 26.825 33.312 33.814
C 27.218 32.542 35.007
C 24.461 34.296 33.145
H 24.775 35.315 32.999
H 24.634 33.855 32.168
H 23.39  34.21  33.331
C 27.704 33.6   32.646
H 28.634 32.944 32.586
C 27.451 34.606 31.823
H 26.551 35.228 31.845
H 28.174 35.079 31.069
N 28.231 31.087 37.449
C 29.036 31.424 36.32 
C 30.324 30.827 36.505
C 30.343 30.181 37.753
C 29.028 30.357 38.321
C 31.474 30.869 35.502
H 32.159 31.701 35.675
H 32.004 29.946 35.622
H 31.099 31.058 34.489
C 31.507 29.422 38.416
H 31.097 28.598 38.978
H 32.216 29.023 37.712
C 32.226 30.274 39.482
H 31.379 30.592 40.17 
H 32.983 29.677 40.002
H 32.803 31.181 39.092
N 26.319 30.763 39.623
C 27.379 30.119 40.232
C 26.904 29.704 41.591
C 25.594 30.205 41.704
C 25.348 30.904 40.522
C 27.707 29.019 42.633
H 27.189 28.739 43.569
H 28.114 28.172 42.238
H 28.504 29.661 42.914
C 24.563 30.468 42.629
O 24.45  30.082 43.798
C 23.507 31.259 41.823
H 23.271 32.076 42.407
C 22.354 30.35  41.808
O 22.288 29.183 41.471
O 21.278 31.085 42.206
C 19.921 30.511 42.183
H 19.55  30.491 41.16 
H 19.985 29.549 42.612
H 19.245 31.1   42.77 
C 18.801 35.916 37.283
H 19.66  36.289 36.762
H 18.373 36.808 37.711
C 17.814 35.164 36.402
H 16.912 34.813 36.936
C 17.834 34.771 35.101
C 18.96  34.965 34.125
H 19.84  35.386 34.589
H 19.26  33.996 33.66 
H 18.554 35.726 33.429
C 16.633 34.146 34.386
H 15.846 33.954 35.08 
H 17.027 33.166 34.063
C 15.908 34.696 33.137
H 15.153 34.01  32.735
H 16.641 34.905 32.374
C 15.267 36.046 33.399
H 15.424 36.434 34.432
H 14.203 35.899 33.338
C 15.456 37.145 32.217
H 16.509 37.178 31.978
C 15.016 38.537 32.787
H 15.66  38.799 33.599
H 15.193 39.229 31.989
H 13.994 38.507 33.158
C 14.788 36.892 30.84 
H 15.072 35.957 30.404
H 15.221 37.616 30.129
C 13.232 36.911 30.863
H 12.974 37.27  29.876
H 12.827 37.713 31.442
C 12.492 35.644 31.136
H 11.914 35.891 32.07 
H 13.246 34.803 31.299
C 11.53  35.247 30.007
H 11.027 36.165 29.792
C 10.414 34.276 30.612
H  9.656 34.172 29.827
H 10.839 33.255 30.884
H  9.92  34.739 31.453
C 12.323 34.891 28.695
H 12.619 33.875 28.87 
H 13.134 35.603 28.468
C 11.45  34.909 27.423
H 11.946 35.485 26.632
H 10.602 35.522 27.658
C 10.925 33.555 27.056
H  9.883 33.694 26.809
H 11.113 32.767 27.759
C 11.577 33.098 25.7  
H 11.536 33.96  25.   
C 10.858 31.867 25.089
H 11.17  31.776 24.023
H 10.91  30.876 25.576
H  9.776 32.22  25.063
C 13.056 32.695 25.826
H 13.23  31.932 25.089
H 13.675 33.57  25.686
H 13.171 32.226 26.794
