137

Mg 30.221 33.205 34.704
C 28.563 32.569 37.74 
C 27.16  32.903 33.165
H 26.243 32.863 32.597
C 31.622 34.23  31.909
H 32.014 34.59  30.977
C 33.101 33.633 36.409
H 34.102 33.743 36.824
N 28.165 32.699 35.39 
C 27.663 32.611 36.662
C 26.151 32.405 36.77 
H 25.921 31.523 37.422
C 25.831 32.257 35.284
H 25.112 33.001 35.041
C 27.107 32.627 34.532
C 25.206 30.874 35.005
H 24.769 30.933 34.006
H 26.019 30.133 34.943
H 24.448 30.62  35.786
C 25.569 33.632 37.498
H 25.91  34.501 36.902
H 26.005 33.762 38.489
C 24.065 33.492 37.708
H 23.773 32.455 37.655
H 23.762 33.94  38.666
C 23.212 34.423 36.759
O 23.431 35.599 36.571
O 22.105 33.785 36.309
N 29.535 33.363 32.809
C 28.232 33.207 32.325
C 28.259 33.42  30.846
C 29.583 33.845 30.543
C 30.32  33.855 31.795
C 27.056 33.393 29.954
H 26.937 34.436 29.544
H 27.112 32.673 29.172
H 26.107 33.096 30.455
C 30.138 34.265 29.239
H 31.194 34.195 29.152
C 29.533 34.613 28.078
H 28.469 34.748 27.938
H 30.131 34.836 27.163
N 32.102 33.836 34.236
C 32.496 34.139 33.02 
C 33.825 34.601 33.024
C 34.29  34.349 34.322
C 33.2   33.905 35.052
C 34.597 35.183 31.835
H 33.944 35.353 31.005
H 35.123 36.111 32.166
H 35.289 34.406 31.6  
C 35.732 34.564 34.833
H 36.113 33.713 35.329
H 36.35  34.92  34.038
C 35.871 35.748 35.782
H 36.787 36.288 35.631
H 35.072 36.359 35.413
H 35.612 35.571 36.772
N 30.761 33.028 36.597
C 32.049 33.247 37.214
C 31.944 33.193 38.698
C 30.598 32.883 38.846
C 29.941 32.778 37.608
C 33.028 33.295 39.79 
H 32.813 34.142 40.504
H 32.991 32.359 40.387
H 34.059 33.44  39.377
C 29.649 32.499 39.854
O 29.802 32.386 41.055
C 28.285 32.352 39.261
H 27.621 33.098 39.779
C 27.817 31.018 39.548
O 28.169 29.97  38.99 
O 27.093 31.035 40.699
C 26.829 29.757 41.348
H 26.264 29.77  42.313
H 26.263 29.111 40.6  
H 27.761 29.225 41.529
C 21.049 34.521 35.536
H 21.527 35.002 34.778
H 20.411 35.179 36.088
C 20.208 33.444 34.855
H 19.355 33.207 35.341
C 20.422 32.842 33.686
C 21.706 33.01  32.89 
H 21.632 32.34  32.065
H 21.643 34.084 32.473
H 22.586 32.908 33.57 
C 19.327 31.885 33.177
H 18.546 31.654 33.911
H 19.774 30.94  32.975
C 18.577 32.4   31.894
H 18.936 33.414 31.566
H 17.561 32.44  32.214
C 18.82  31.456 30.646
H 19.78  31.029 30.689
H 18.779 32.049 29.771
C 17.894 30.237 30.296
H 17.89  29.432 31.003
C 18.286 29.612 28.962
H 19.28  29.197 29.124
H 17.631 28.791 28.704
H 18.179 30.323 28.122
C 16.376 30.777 30.226
H 16.003 31.011 31.182
H 15.793 29.895 29.895
C 15.995 31.9   29.206
H 16.758 32.145 28.468
H 15.725 32.826 29.786
C 14.752 31.471 28.39 
H 14.461 30.394 28.565
H 14.973 31.643 27.336
C 13.521 32.292 28.667
H 13.842 33.319 28.591
C 12.86  32.041 30.065
H 12.756 31.008 30.005
H 13.498 32.345 30.854
H 11.986 32.502 30.287
C 12.533 32.089 27.514
H 12.229 31.069 27.698
H 13.182 32.183 26.57 
C 11.349 33.103 27.369
H 11.574 33.51  26.358
H 11.243 33.901 28.177
C  9.961 32.441 27.192
H 10.081 31.544 27.828
H  9.765 32.292 26.087
C  8.675 33.365 27.587
H  8.902 33.909 28.553
C  7.43  32.502 27.799
H  7.601 31.899 28.683
H  6.52  33.113 27.869
H  7.401 31.881 26.914
C  8.388 34.418 26.453
H  9.17  35.164 26.301
H  8.255 33.88  25.502
H  7.515 35.001 26.708
