137

Mg 30.452 28.405 41.988
C 27.081 28.457 42.6  
C 29.773 28.448 38.712
H 29.748 28.587 37.658
C 33.782 28.248 41.32 
H 34.805 28.13  41.176
C 31.063 28.027 45.381
H 31.23  28.016 46.473
N 28.618 28.442 40.774
C 27.336 28.486 41.199
C 26.279 28.369 40.102
H 25.891 27.383 40.011
C 27.151 28.585 38.824
H 26.977 29.594 38.379
C 28.565 28.48  39.44 
C 26.856 27.408 37.791
H 27.474 27.407 36.866
H 26.938 26.407 38.277
H 25.902 27.526 37.341
C 25.137 29.433 40.046
H 25.66  30.351 39.841
H 24.668 29.375 40.976
C 24.065 29.08  38.959
H 24.042 28.032 38.628
H 23.103 29.282 39.497
C 23.921 30.015 37.789
O 23.406 31.131 37.778
O 24.326 29.432 36.601
N 31.508 28.435 40.379
C 31.117 28.365 39.049
C 32.27  28.286 38.119
C 33.365 28.293 38.833
C 32.875 28.336 40.248
C 32.095 28.248 36.644
H 32.818 27.558 36.32 
H 31.199 27.74  36.23 
H 32.262 29.201 36.211
C 34.693 28.498 38.334
H 35.51  28.083 38.923
C 35.102 29.294 37.249
H 34.339 29.835 36.724
H 36.116 29.3   36.859
N 32.087 28.172 43.168
C 33.39  28.183 42.688
C 34.272 27.879 43.833
C 33.509 27.977 45.011
C 32.176 28.036 44.588
C 35.8   27.693 43.705
H 36.423 28.617 43.949
H 36.182 26.954 44.432
H 36.06  27.397 42.698
C 34.05  27.931 46.321
H 33.618 27.143 46.895
H 35.155 27.787 46.295
C 33.792 29.199 47.101
H 34.192 30.035 46.535
H 32.696 29.291 47.201
H 34.165 29.244 48.092
N 29.358 28.274 43.606
C 29.765 28.168 44.973
C 28.59  28.043 45.8  
C 27.511 28.239 44.891
C 28.044 28.319 43.622
C 28.364 27.793 47.339
H 27.831 26.855 47.448
H 29.398 27.654 47.757
H 27.814 28.584 47.769
C 26.08  28.327 44.827
O 25.254 28.189 45.726
C 25.758 28.518 43.352
H 25.221 29.436 43.101
C 24.86  27.373 43.061
O 25.217 26.241 42.743
O 23.518 27.637 43.195
C 22.688 26.561 42.823
H 22.676 26.406 41.737
H 22.964 25.593 43.296
H 21.7   26.828 43.085
C 24.2   30.179 35.34 
H 25.065 29.923 34.827
H 24.196 31.283 35.525
C 22.968 29.682 34.559
H 23.028 28.596 34.465
C 21.824 30.309 34.285
C 21.431 31.733 34.612
H 21.331 32.267 33.647
H 20.407 31.838 35.166
H 22.185 32.123 35.265
C 20.676 29.394 33.849
H 21.191 28.678 33.165
H 20.006 29.857 33.167
C 19.923 28.627 35.075
H 18.888 28.787 34.887
H 20.165 29.117 36.013
C 20.345 27.192 35.29 
H 20.874 27.127 36.247
H 20.938 26.865 34.462
C 19.185 26.209 35.693
H 18.844 26.63  36.709
C 19.731 24.782 35.745
H 19.019 24.14  36.27 
H 19.823 24.36  34.721
H 20.653 24.736 36.259
C 17.862 26.349 34.962
H 17.43  27.37  35.088
H 17.145 25.693 35.465
C 17.908 26.127 33.435
H 17.547 25.135 33.058
H 18.916 26.196 33.148
C 17.177 27.314 32.72 
H 17.636 28.282 32.823
H 16.182 27.385 33.216
C 16.843 27.05  31.233
H 16.11  26.246 31.198
C 18.118 26.598 30.459
H 18.865 27.461 30.625
H 18.587 25.645 30.746
H 17.931 26.536 29.435
C 16.141 28.21  30.578
H 16.781 29.089 30.808
H 15.193 28.374 31.157
C 15.89  28.193 29.104
H 16.172 27.239 28.577
H 16.415 28.999 28.651
C 14.405 28.388 28.763
H 14.32  29.29  28.198
H 13.785 28.491 29.631
C 13.695 27.338 27.89 
H 14.46  27.182 27.117
C 12.265 27.792 27.373
H 12.365 28.584 26.602
H 11.751 26.933 26.861
H 11.839 28.2   28.285
C 13.67  25.941 28.534
H 13.155 25.292 27.816
H 14.652 25.58  28.715
H 13.147 26.044 29.463
