137

Mg 28.018 26.409 44.893
C 25.012 25.011 43.925
C 29.208 25.905 41.703
H 29.692 25.647 40.79 
C 30.994 27.66  45.856
H 31.878 28.133 46.299
C 26.821 26.583 48.094
H 26.39  26.582 49.111
N 27.1   25.855 43.032
C 25.844 25.292 42.844
C 25.623 25.024 41.341
H 25.4   23.942 41.341
C 27.001 25.175 40.68 
H 27.159 25.985 39.914
C 27.865 25.663 41.886
C 27.63  23.81  40.187
H 27.11  23.569 39.32 
H 28.704 23.99  39.884
H 27.628 23.    40.865
C 24.528 25.822 40.716
H 24.874 26.846 40.718
H 23.789 25.883 41.468
C 23.835 25.399 39.387
H 24.438 24.604 38.929
H 22.848 24.983 39.547
C 23.604 26.614 38.459
O 24.534 27.174 37.932
O 22.295 26.844 38.201
N 29.81  26.83  43.876
C 30.097 26.606 42.581
C 31.453 27.019 42.376
C 31.935 27.591 43.547
C 30.94  27.348 44.51 
C 32.129 26.966 41.052
H 32.115 27.992 40.612
H 33.146 26.67  40.961
H 31.586 26.233 40.408
C 33.242 28.275 43.936
H 33.205 28.852 44.789
C 34.459 28.152 43.33 
H 34.605 27.459 42.517
H 35.273 28.727 43.713
N 28.876 26.959 46.741
C 30.078 27.5   46.911
C 30.257 27.759 48.337
C 28.987 27.5   48.934
C 28.147 26.996 47.906
C 31.562 28.284 48.968
H 32.42  28.441 48.198
H 31.382 29.168 49.548
H 31.914 27.579 49.69 
C 28.685 27.543 50.379
H 28.429 26.553 50.759
H 29.626 28.011 50.877
C 27.553 28.513 50.683
H 28.    29.449 51.069
H 26.962 28.628 49.746
H 26.892 27.952 51.388
N 26.396 25.816 45.882
C 25.99  25.891 47.212
C 24.77  25.246 47.476
C 24.377 24.837 46.145
C 25.346 25.233 45.255
C 24.044 24.921 48.816
H 22.973 25.04  48.811
H 24.37  23.899 49.173
H 24.319 25.662 49.566
C 23.331 24.219 45.405
O 22.24  23.925 45.843
C 23.679 24.306 43.959
H 22.847 24.759 43.458
C 23.728 22.983 43.344
O 24.405 22.006 43.756
O 22.84  22.891 42.271
C 22.803 21.605 41.557
H 21.874 21.78  40.943
H 23.558 21.407 40.828
H 22.572 20.781 42.246
C 22.032 28.003 37.29 
H 22.616 27.874 36.379
H 22.322 28.9   37.849
C 20.564 28.007 36.893
H 19.914 27.556 37.651
C 19.895 28.45  35.836
C 20.61  29.267 34.793
H 21.717 29.133 34.883
H 20.39  28.885 33.803
H 20.247 30.296 34.865
C 18.366 28.301 35.716
H 18.058 27.245 35.64 
H 18.164 28.77  34.738
C 17.598 29.188 36.811
H 17.324 30.187 36.372
H 18.256 29.493 37.668
C 16.369 28.469 37.396
H 16.595 28.331 38.458
H 16.219 27.548 36.935
C 15.013 29.248 37.319
H 15.229 30.246 37.653
C 13.932 28.611 38.212
H 13.027 29.211 38.088
H 13.672 27.636 37.841
H 14.341 28.634 39.206
C 14.614 29.492 35.776
H 15.401 30.019 35.281
H 13.755 30.114 35.86 
C 14.303 28.307 34.932
H 14.576 27.459 35.517
H 15.042 28.185 34.12 
C 12.902 28.296 34.33 
H 12.912 28.745 33.322
H 12.259 28.854 34.941
C 12.248 26.921 34.187
H 11.993 26.424 35.078
C 13.155 25.982 33.342
H 13.194 26.481 32.331
H 14.135 25.842 33.784
H 12.826 24.899 33.242
C 10.838 27.024 33.483
H 11.034 27.582 32.496
H 10.211 27.736 34.009
C  9.962 25.769 33.258
H  9.044 25.806 33.95 
H 10.535 24.821 33.52 
C  9.49  25.903 31.771
H 10.187 25.526 31.013
H  9.319 27.    31.565
C  8.197 24.954 31.538
H  7.402 25.354 32.156
C  8.435 23.495 31.873
H  8.596 23.295 32.966
H  7.468 23.006 31.725
H  9.192 23.077 31.26 
C  7.695 25.097 30.132
H  7.091 24.167 29.832
H  7.223 26.05  29.893
H  8.569 24.95  29.425
