137

Mg 26.74  33.836 32.348
C 24.958 32.779 35.09 
C 23.74  34.528 30.792
H 22.763 34.76  30.335
C 28.424 35.179 29.712
H 28.999 35.501 28.826
C 29.56  33.551 34.169
H 30.533 33.489 34.705
N 24.655 33.659 32.83 
C 24.151 33.165 34.03 
C 22.57  33.107 34.047
H 22.256 32.086 34.319
C 22.229 33.381 32.574
H 21.475 34.168 32.617
C 23.599 33.873 32.022
C 21.689 32.106 31.835
H 22.476 31.313 31.72 
H 20.81  31.758 32.41 
H 21.436 32.382 30.853
C 22.145 34.145 35.046
H 22.433 35.085 34.591
H 22.694 33.916 35.932
C 20.689 34.026 35.483
H 20.125 33.527 34.708
H 20.624 33.378 36.373
C 20.001 35.316 35.671
O 20.035 35.962 36.729
O 19.403 35.725 34.55 
N 26.195 34.632 30.533
C 24.891 34.821 30.046
C 24.981 35.418 28.738
C 26.362 35.558 28.438
C 27.087 35.171 29.598
C 23.77  35.714 27.896
H 22.98  35.986 28.591
H 24.023 36.611 27.277
H 23.517 34.871 27.23 
C 26.929 36.12  27.239
H 27.689 36.9   27.361
C 26.707 35.663 25.981
H 26.057 34.877 25.731
H 27.21  36.077 25.072
N 28.709 34.168 31.989
C 29.21  34.758 30.815
C 30.692 34.829 30.986
C 30.949 34.43  32.331
C 29.762 34.031 32.872
C 31.712 35.399 29.98 
H 32.265 36.275 30.367
H 32.389 34.541 29.864
H 31.378 35.564 28.963
C 32.282 34.427 32.973
H 32.375 33.596 33.706
H 33.005 34.33  32.186
C 32.58  35.747 33.686
H 32.521 36.602 32.959
H 31.86  35.83  34.545
H 33.552 35.761 34.293
N 27.236 33.286 34.192
C 28.415 33.118 34.829
C 28.297 32.463 36.083
C 26.964 32.169 36.14 
C 26.316 32.845 35.061
C 29.392 32.046 37.016
H 28.965 32.167 38.011
H 29.605 30.962 36.874
H 30.353 32.593 36.804
C 25.924 31.468 36.839
O 25.99  30.747 37.805
C 24.612 31.938 36.252
H 24.186 32.542 37.075
C 23.855 30.671 35.939
O 24.211 29.71  35.222
O 22.77  30.564 36.792
C 22.031 29.279 36.729
H 21.042 29.469 37.09 
H 21.962 28.85  35.724
H 22.402 28.498 37.371
C 19.063 37.061 34.436
H 20.071 37.532 34.369
H 18.435 37.49  35.233
C 18.306 37.24  33.169
H 18.899 36.768 32.413
C 17.144 37.864 32.81 
C 16.445 38.944 33.696
H 15.931 39.796 33.262
H 15.808 38.328 34.418
H 17.182 39.341 34.353
C 16.66  37.864 31.405
H 17.346 37.214 30.873
H 16.605 38.807 30.873
C 15.398 37.078 31.247
H 15.358 36.517 32.192
H 15.447 36.386 30.472
C 14.183 38.033 30.822
H 14.61  39.009 30.508
H 13.576 38.196 31.687
C 13.373 37.557 29.524
H 14.065 37.604 28.658
C 12.142 38.416 29.192
H 11.232 38.322 29.86 
H 12.528 39.421 29.277
H 11.905 38.219 28.093
C 12.944 35.958 29.521
H 13.804 35.321 29.491
H 12.449 35.888 28.512
C 11.996 35.412 30.576
H 11.236 34.85  30.009
H 11.55  36.244 31.059
C 12.64  34.51  31.649
H 12.476 34.974 32.576
H 13.758 34.524 31.56 
C 12.25  33.015 31.655
H 11.211 33.074 31.361
C 12.618 32.447 33.064
H 12.634 31.35  33.014
H 13.673 32.628 33.301
H 11.958 32.801 33.848
C 12.903 32.319 30.422
H 13.968 32.298 30.501
H 12.779 32.915 29.544
C 12.325 30.953 30.189
H 12.125 30.849 29.095
H 11.42  30.753 30.753
C 13.271 29.76  30.444
H 12.775 29.232 31.223
H 14.24  30.055 30.901
C 13.667 28.823 29.273
H 12.776 28.435 28.787
C 14.535 27.686 29.765
H 14.789 27.082 28.823
H 15.45  28.062 30.253
H 13.967 27.018 30.333
C 14.475 29.596 28.239
H 15.037 28.89  27.587
H 13.874 30.24  27.528
H 15.167 30.283 28.706
