137

Mg 23.509 31.856 35.895
C 22.394 29.888 38.545
C 20.24  31.975 34.753
H 19.212 31.94  34.382
C 24.533 33.713 33.32 
H 24.906 34.383 32.549
C 26.794 31.232 36.807
H 27.797 31.111 37.042
N 21.601 30.971 36.588
C 21.396 30.227 37.674
C 19.914 29.701 37.85 
H 19.903 28.616 37.798
C 19.265 30.431 36.676
H 18.628 31.195 37.068
C 20.397 31.213 35.932
C 18.482 29.411 35.659
H 17.621 29.856 35.132
H 19.231 29.025 34.982
H 18.158 28.536 36.242
C 19.278 30.089 39.185
H 19.3   31.189 39.156
H 19.764 29.702 40.086
C 17.888 29.386 39.419
H 17.546 28.819 38.583
H 17.874 28.736 40.29 
C 16.774 30.414 39.615
O 16.132 30.7   40.622
O 16.56  31.027 38.351
N 22.615 32.694 34.325
C 21.224 32.681 34.013
C 20.968 33.463 32.764
C 22.185 33.962 32.403
C 23.164 33.419 33.357
C 19.577 33.648 32.117
H 18.82  33.468 32.93 
H 19.396 34.672 31.685
H 19.526 32.947 31.317
C 22.48  34.831 31.27 
H 23.399 35.413 31.296
C 21.76  34.902 30.155
H 20.799 34.29  30.11 
H 22.009 35.548 29.333
N 25.36  32.449 35.227
C 25.529 33.305 34.212
C 26.957 33.655 34.113
C 27.607 32.819 35.047
C 26.622 32.145 35.75 
C 27.571 34.579 33.105
H 27.26  35.538 33.328
H 28.65  34.503 33.055
H 27.201 34.275 32.124
C 29.101 32.822 35.363
H 29.493 31.821 35.489
H 29.615 33.136 34.446
C 29.315 33.569 36.674
H 30.354 33.713 36.847
H 28.933 34.555 36.457
H 28.801 33.035 37.493
N 24.449 30.997 37.363
C 25.776 30.745 37.59 
C 25.929 29.974 38.788
C 24.631 29.65  39.163
C 23.727 30.232 38.249
C 27.328 29.616 39.529
H 27.833 28.752 39.178
H 28.055 30.495 39.397
H 27.085 29.565 40.587
C 23.927 28.955 40.184
O 24.314 28.378 41.209
C 22.406 29.063 39.81 
H 21.851 29.587 40.598
C 21.879 27.731 39.749
O 22.214 26.942 38.933
O 20.908 27.411 40.678
C 20.193 26.165 40.422
H 19.331 26.133 41.056
H 19.819 26.303 39.415
H 20.778 25.242 40.489
C 15.552 32.051 38.283
H 15.721 32.789 39.033
H 14.523 31.611 38.514
C 15.534 32.466 36.814
H 14.788 31.946 36.302
C 16.168 33.498 36.27 
C 17.237 34.329 36.884
H 17.697 33.789 37.719
H 18.023 34.583 36.208
H 16.773 35.146 37.296
C 15.719 33.962 34.883
H 15.067 33.235 34.424
H 16.517 34.1   34.195
C 14.881 35.248 34.868
H 15.2   35.957 35.638
H 13.911 34.841 35.236
C 14.611 35.839 33.534
H 13.539 35.758 33.322
H 15.098 35.234 32.736
C 14.913 37.416 33.328
H 14.417 37.988 34.182
C 14.237 37.98  32.013
H 14.712 37.621 31.11 
H 13.162 37.963 32.094
H 14.358 39.085 32.09 
C 16.49  37.727 33.343
H 16.884 37.754 34.366
H 16.553 38.739 33.   
C 17.4   36.987 32.327
H 16.829 36.424 31.658
H 18.003 36.214 32.802
C 18.253 37.889 31.393
H 19.247 37.517 31.652
H 18.312 38.847 31.884
C 18.081 37.931 29.79 
H 17.032 37.797 29.656
C 18.71  36.607 29.172
H 18.293 36.526 28.172
H 19.765 36.677 29.261
H 18.409 35.668 29.701
C 18.671 39.182 29.144
H 18.638 39.071 28.113
H 19.739 39.256 29.444
C 17.911 40.477 29.539
H 16.979 40.328 30.044
H 17.74  41.056 28.619
C 18.83  41.461 30.344
H 19.335 42.279 29.784
H 19.656 40.94  30.83 
C 18.17  42.128 31.569
H 17.825 41.281 32.141
C 17.025 43.1   31.207
H 16.661 43.579 32.113
H 17.502 43.783 30.494
H 16.265 42.608 30.673
C 19.252 42.836 32.438
H 18.839 42.957 33.496
H 20.164 42.27  32.486
H 19.387 43.862 32.002
