137

Mg 34.086 29.562 34.79 
C 30.77  29.021 34.635
C 34.452 27.886 31.842
H 34.588 27.335 30.9  
C 37.462 29.625 35.088
H 38.497 29.65  35.232
C 33.877 30.558 38.057
H 33.771 30.897 39.066
N 32.698 28.6   33.326
C 31.368 28.546 33.464
C 30.773 27.64  32.412
H 30.458 26.741 32.88 
C 31.978 27.388 31.451
H 32.008 27.975 30.486
C 33.126 27.93  32.318
C 32.165 25.836 31.213
H 33.131 25.732 30.742
H 32.095 25.348 32.159
H 31.379 25.467 30.587
C 29.475 28.129 31.704
H 29.795 29.057 31.243
H 28.704 28.475 32.449
C 28.931 27.14  30.665
H 28.833 27.703 29.718
H 29.438 26.221 30.503
C 27.529 26.713 31.001
O 27.182 25.747 31.65 
O 26.656 27.594 30.511
N 35.711 28.815 33.669
C 35.658 28.213 32.447
C 36.969 27.953 31.923
C 37.826 28.468 32.9  
C 37.012 29.001 33.966
C 37.351 27.263 30.644
H 37.086 27.917 29.813
H 38.396 27.187 30.492
H 36.91  26.283 30.647
C 39.332 28.338 32.883
H 39.815 28.253 31.881
C 40.089 28.099 33.991
H 39.614 27.899 34.971
H 41.2   27.866 33.929
N 35.375 30.083 36.248
C 36.77  30.154 36.163
C 37.372 30.659 37.369
C 36.302 30.898 38.211
C 35.124 30.421 37.523
C 38.818 31.011 37.517
H 39.179 31.325 36.577
H 39.024 31.788 38.225
H 39.5   30.151 37.581
C 36.42  31.514 39.565
H 36.056 30.869 40.317
H 37.436 31.648 39.891
C 35.685 32.841 39.57 
H 34.763 32.796 39.045
H 35.486 33.213 40.587
H 36.325 33.608 39.109
N 32.67  29.869 36.106
C 32.711 30.185 37.429
C 31.351 30.326 37.888
C 30.528 29.964 36.805
C 31.374 29.65  35.724
C 30.958 30.651 39.29 
H 29.924 30.877 39.344
H 31.072 29.843 40.013
H 31.376 31.522 39.669
C 29.217 29.663 36.451
O 28.243 29.612 37.161
C 29.324 29.084 35.032
H 28.841 29.871 34.423
C 28.629 27.779 35.072
O 29.29  26.773 35.095
O 27.248 27.766 34.953
C 26.587 26.429 35.076
H 26.618 26.017 36.091
H 25.541 26.701 34.918
H 26.969 25.791 34.276
C 25.24  27.488 30.885
H 24.971 27.84  31.863
H 24.941 26.415 30.725
C 24.404 28.318 30.039
H 24.675 29.332 30.118
C 23.593 28.041 29.037
C 22.963 26.678 28.709
H 21.993 26.866 28.199
H 23.699 26.116 28.226
H 22.679 26.021 29.533
C 22.87  29.113 28.301
H 23.126 30.085 28.748
H 21.81  28.937 28.424
C 23.155 29.302 26.811
H 22.277 29.103 26.222
H 23.961 28.642 26.549
C 23.695 30.736 26.503
H 24.554 30.6   25.845
H 24.129 31.143 27.442
C 22.669 31.755 25.978
H 21.821 31.579 26.567
C 22.292 31.483 24.448
H 21.647 32.333 24.088
H 23.274 31.499 23.913
H 21.767 30.476 24.237
C 23.264 33.218 26.193
H 22.584 33.931 25.824
H 24.145 33.413 25.529
C 23.512 33.681 27.559
H 24.637 33.687 27.707
H 23.148 32.953 28.295
C 23.13  35.088 27.997
H 22.802 35.637 27.142
H 24.017 35.592 28.406
C 21.988 35.174 29.063
H 22.252 34.577 29.939
C 20.712 34.536 28.566
H 20.777 33.502 28.184
H 19.926 34.604 29.385
H 20.402 35.169 27.763
C 21.785 36.616 29.587
H 20.959 36.621 30.314
H 21.497 37.265 28.754
C 22.948 37.435 30.238
H 22.466 38.428 30.111
H 23.884 37.559 29.685
C 23.115 37.041 31.687
H 22.442 36.179 31.845
H 22.645 37.858 32.16 
C 24.489 36.664 32.257
H 25.323 37.365 32.174
C 24.991 35.268 31.674
H 24.107 34.623 31.899
H 25.072 35.338 30.562
H 25.933 34.934 32.21 
C 24.371 36.355 33.743
H 25.38  35.945 34.129
H 24.169 37.29  34.235
H 23.649 35.664 34.006
