137

Mg 37.497 26.3   32.499
C 34.096 26.134 33.167
C 37.003 23.886 30.1  
H 36.88  23.107 29.358
C 40.822 26.081 32.007
H 41.842 26.002 31.731
C 38.039 28.06  35.401
H 38.199 28.504 36.383
N 35.747 25.192 31.709
C 34.4   25.407 32.018
C 33.386 24.62  31.05 
H 32.776 23.974 31.628
C 34.493 23.618 30.35 
H 34.421 23.706 29.255
C 35.822 24.293 30.712
C 34.329 22.147 30.715
H 35.168 21.635 30.342
H 34.434 22.117 31.798
H 33.386 21.872 30.152
C 32.606 25.614 30.178
H 33.283 26.037 29.422
H 32.247 26.352 30.938
C 31.377 24.963 29.445
H 31.65  24.714 28.468
H 31.12  24.131 29.882
C 30.052 25.675 29.466
O 29.008 25.215 29.944
O 30.216 27.002 29.045
N 38.719 25.292 31.151
C 38.32  24.264 30.311
C 39.458 23.846 29.55 
C 40.603 24.45  30.11 
C 40.081 25.258 31.152
C 39.43  22.896 28.4  
H 40.289 22.236 28.617
H 38.551 22.197 28.373
H 39.524 23.391 27.423
C 42.03  24.298 29.728
H 42.852 24.146 30.373
C 42.497 24.356 28.484
H 41.758 24.367 27.652
H 43.576 24.123 28.294
N 39.147 27.061 33.45 
C 40.425 26.87  33.105
C 41.314 27.579 34.042
C 40.534 28.098 35.051
C 39.19  27.792 34.651
C 42.785 27.64  33.864
H 43.115 26.97  34.666
H 43.108 27.206 32.926
H 43.164 28.66  34.086
C 41.021 28.893 36.269
H 40.677 28.397 37.199
H 42.103 29.063 36.285
C 40.421 30.317 36.453
H 40.949 30.756 37.284
H 40.533 30.865 35.496
H 39.356 30.266 36.807
N 36.364 27.019 33.94 
C 36.733 27.642 35.13 
C 35.56  27.847 35.952
C 34.457 27.303 35.234
C 35.032 26.787 34.016
C 35.598 28.494 37.256
H 34.608 29.087 37.373
H 35.686 27.701 38.022
H 36.369 29.293 37.194
C 33.024 27.083 35.192
O 32.158 27.532 35.957
C 32.744 26.194 33.892
H 31.958 26.687 33.273
C 32.102 24.914 34.282
O 32.661 24.147 35.021
O 30.872 24.656 33.633
C 30.26  23.328 33.969
H 30.904 22.474 33.641
H 29.977 23.24  34.999
H 29.396 23.321 33.433
C 28.915 27.674 29.029
H 28.584 27.692 30.033
H 28.171 27.178 28.358
C 29.284 29.008 28.49 
H 30.203 29.014 27.895
C 28.724 30.229 28.668
C 27.614 30.423 29.701
H 27.327 29.492 30.195
H 27.805 31.12  30.524
H 26.635 30.661 29.165
C 29.271 31.422 27.937
H 30.351 31.349 27.67 
H 29.115 32.227 28.638
C 28.585 31.796 26.636
H 28.957 32.81  26.394
H 27.484 31.886 26.817
C 28.896 30.78  25.601
H 29.538 30.097 25.956
H 29.469 31.297 24.874
C 27.605 30.041 24.881
H 26.928 30.912 24.723
C 26.948 28.934 25.736
H 26.047 28.552 25.286
H 27.598 28.094 25.694
H 26.847 29.22  26.743
C 27.893 29.573 23.483
H 27.024 28.953 23.099
H 28.709 28.856 23.383
C 27.968 30.671 22.387
H 28.885 30.514 21.741
H 28.001 31.632 22.846
C 26.828 30.66  21.285
H 26.054 29.952 21.501
H 27.252 30.322 20.366
C 26.    31.978 20.992
H 26.56  32.899 20.852
C 25.244 32.318 22.278
H 24.587 33.092 21.995
H 24.743 31.457 22.715
H 25.974 32.833 23.032
C 25.033 31.916 19.724
H 24.626 32.908 19.577
H 24.222 31.28  20.022
C 25.507 31.424 18.355
H 25.31  30.267 18.264
H 26.556 31.554 18.212
C 24.833 32.183 17.174
H 25.423 33.077 16.866
H 23.859 32.568 17.362
C 24.596 31.42  15.892
H 24.296 30.44  16.203
C 25.907 31.357 15.04 
H 26.251 32.385 14.742
H 26.692 30.922 15.707
H 25.829 30.662 14.23 
C 23.476 31.971 15.005
H 23.19  31.265 14.236
H 22.523 32.094 15.446
H 23.813 32.996 14.655
