137

Mg 24.103 27.524 42.34 
C 22.581 24.541 41.867
C 25.319 27.376 39.113
H 25.793 27.318 38.113
C 25.493 30.557 42.682
H 25.832 31.573 42.803
C 23.081 27.443 45.667
H 22.758 27.508 46.705
N 23.861 26.164 40.673
C 23.131 25.034 40.674
C 23.258 24.222 39.439
H 23.654 23.171 39.635
C 24.299 25.083 38.617
H 23.987 25.339 37.579
C 24.55  26.304 39.47 
C 25.714 24.408 38.438
H 26.056 24.151 39.446
H 25.801 23.394 37.991
H 26.461 25.146 38.024
C 21.756 24.348 38.796
H 21.594 25.322 38.465
H 20.961 24.101 39.549
C 21.429 23.35  37.635
H 22.226 22.712 37.352
H 20.515 22.811 37.917
C 20.959 24.052 36.357
O 21.646 24.734 35.589
O 19.667 23.733 36.042
N 25.18  28.733 41.106
C 25.64  28.465 39.843
C 26.439 29.582 39.358
C 26.493 30.497 40.458
C 25.697 29.934 41.5  
C 27.142 29.534 37.967
H 26.821 28.772 37.212
H 26.955 30.507 37.538
H 28.216 29.618 38.221
C 27.274 31.752 40.593
H 27.744 32.028 41.521
C 27.212 32.631 39.552
H 26.693 32.37  38.626
H 27.666 33.623 39.558
N 24.121 28.859 43.864
C 24.887 30.061 43.833
C 24.747 30.71  45.174
C 23.945 29.858 45.975
C 23.699 28.668 45.194
C 25.586 31.949 45.525
H 25.367 32.622 44.736
H 25.264 32.291 46.536
H 26.648 31.862 45.699
C 23.534 30.049 47.433
H 23.938 29.277 48.103
H 24.011 30.959 47.843
C 22.053 30.036 47.597
H 21.615 29.028 47.635
H 21.818 30.383 48.626
H 21.594 30.649 46.803
N 23.072 26.293 43.532
C 22.774 26.347 44.9  
C 22.147 25.143 45.337
C 22.014 24.423 44.142
C 22.57  25.19  43.136
C 21.62  24.893 46.69 
H 21.063 23.936 46.701
H 22.343 24.876 47.49 
H 20.727 25.576 46.906
C 21.564 23.155 43.652
O 21.048 22.225 44.171
C 21.833 23.275 42.089
H 20.9   23.193 41.552
C 22.557 21.936 41.941
O 23.681 21.648 42.341
O 21.774 21.129 41.111
C 22.283 19.751 41.031
H 21.568 19.117 40.424
H 23.216 19.735 40.562
H 22.362 19.175 41.978
C 19.222 24.275 34.726
H 19.956 24.067 33.913
H 18.982 25.336 34.768
C 17.919 23.568 34.455
H 17.274 23.643 35.295
C 17.462 22.936 33.367
C 18.271 22.896 32.026
H 18.097 22.    31.4  
H 17.964 23.641 31.302
H 19.363 22.867 32.158
C 16.16  22.155 33.334
H 15.574 22.183 34.222
H 16.372 21.101 33.203
C 15.305 22.504 32.117
H 15.316 21.679 31.416
H 15.585 23.52  31.577
C 13.788 22.727 32.407
H 13.885 23.288 33.399
H 13.215 21.762 32.599
C 12.975 23.624 31.395
H 13.638 24.37  31.032
C 11.88  24.46  32.049
H 11.428 25.112 31.249
H 11.166 23.837 32.488
H 12.424 25.001 32.915
C 12.398 22.964 30.111
H 13.155 22.313 29.761
H 12.22  23.745 29.381
C 11.176 21.98  30.223
H 11.119 21.74  31.262
H 11.55  20.996 29.706
C  9.843 22.498 29.638
H  9.858 23.598 29.557
H  9.068 22.17  30.348
C  9.375 21.886 28.289
H 10.043 22.208 27.488
C  8.054 22.525 27.958
H  7.272 22.519 28.729
H  8.295 23.619 27.77 
H  7.668 22.041 27.057
C  9.151 20.312 28.343
H  8.321 19.994 28.882
H 10.008 19.938 28.827
C  9.265 19.634 26.941
H  9.112 20.473 26.193
H  8.4   19.018 26.797
C 10.687 18.881 26.752
H 10.445 17.889 26.359
H 11.203 18.774 27.721
C 11.738 19.397 25.719
H 11.958 20.46  25.889
C 11.16  19.363 24.233
H 11.147 18.329 23.865
H 10.128 19.758 24.269
H 11.737 19.992 23.536
C 13.059 18.61  25.698
H 13.787 19.35  25.494
H 13.249 18.149 26.644
H 13.192 17.832 24.961
