137

Mg 26.577 32.658 32.691
C 25.205 32.42  35.809
C 23.594 33.74  31.504
H 22.614 33.993 31.104
C 28.09  33.733 29.871
H 28.666 34.188 29.041
C 29.742 31.811 34.003
H 30.655 31.386 34.499
N 24.627 32.969 33.546
C 24.288 32.823 34.832
C 22.825 32.993 35.035
H 22.499 32.035 35.353
C 22.283 33.259 33.636
H 21.761 34.201 33.557
C 23.559 33.32  32.834
C 21.214 32.175 33.165
H 21.629 31.203 33.187
H 20.216 32.114 33.695
H 21.012 32.18  32.12 
C 22.439 34.065 36.102
H 22.865 35.054 35.8  
H 22.975 33.964 37.003
C 20.908 34.197 36.391
H 20.338 33.614 35.664
H 20.655 33.794 37.305
C 20.312 35.567 36.411
O 20.531 36.392 37.286
O 19.418 35.832 35.37 
N 25.859 33.488 30.895
C 24.634 33.905 30.642
C 24.55  34.515 29.363
C 25.854 34.531 28.834
C 26.695 33.927 29.885
C 23.275 35.008 28.735
H 23.272 35.065 27.648
H 22.387 34.451 29.176
H 23.138 36.02  29.019
C 26.384 35.25  27.635
H 27.426 35.116 27.196
C 25.673 36.182 26.922
H 24.691 36.575 27.148
H 26.182 36.463 25.986
N 28.608 32.739 31.986
C 28.986 33.277 30.767
C 30.441 33.057 30.591
C 30.902 32.475 31.817
C 29.743 32.309 32.68 
C 31.159 33.207 29.319
H 31.201 34.244 29.033
H 32.141 32.858 29.484
H 30.686 32.748 28.489
C 32.283 31.862 32.089
H 32.182 30.917 32.718
H 32.73  31.58  31.147
C 33.185 32.8   32.911
H 34.134 32.347 33.072
H 33.291 33.79  32.489
H 32.806 32.972 33.916
N 27.335 32.224 34.462
C 28.62  31.814 34.869
C 28.579 31.454 36.252
C 27.244 31.709 36.707
C 26.55  32.213 35.584
C 29.629 30.864 37.133
H 30.354 30.221 36.673
H 30.238 31.633 37.601
H 29.203 30.372 37.944
C 26.37  31.583 37.829
O 26.522 31.161 38.99 
C 24.96  32.031 37.333
H 24.684 32.85  37.933
C 24.025 30.862 37.42 
O 23.856 29.968 36.612
O 23.372 30.946 38.649
C 22.676 29.725 39.076
H 21.942 29.279 38.332
H 23.539 28.977 39.202
H 22.218 29.664 40.062
C 18.658 37.079 35.524
H 19.274 38.007 35.448
H 18.132 37.156 36.512
C 17.706 37.095 34.357
H 18.185 37.093 33.411
C 16.367 37.11  34.372
C 15.462 37.117 35.593
H 15.847 36.511 36.38 
H 15.442 38.156 35.993
H 14.535 36.676 35.285
C 15.617 37.361 32.987
H 16.334 37.663 32.213
H 14.964 38.288 33.036
C 14.754 36.212 32.483
H 14.925 35.325 33.085
H 15.048 36.027 31.481
C 13.204 36.494 32.542
H 13.001 37.534 32.348
H 12.835 36.278 33.564
C 12.446 35.683 31.489
H 12.982 35.769 30.566
C 11.044 36.368 31.159
H 10.616 35.688 30.407
H 10.449 36.307 32.03 
H 11.111 37.368 30.898
C 12.373 34.143 31.788
H 13.397 33.858 31.867
H 11.981 33.601 30.921
C 11.547 33.59  32.931
H 10.684 33.042 32.529
H 11.113 34.371 33.502
C 12.421 32.696 33.87 
H 12.16  33.083 34.84 
H 13.442 32.96  33.765
C 12.083 31.172 33.803
H 11.034 30.953 33.746
C 12.612 30.558 35.208
H 12.548 29.513 34.962
H 13.653 30.803 35.395
H 12.01  30.717 36.09 
C 12.859 30.505 32.645
H 13.901 30.571 32.871
H 12.742 31.275 31.897
C 12.34  29.195 32.078
H 11.422 28.814 32.621
H 13.138 28.452 32.342
C 12.012 29.138 30.59 
H 12.372 28.192 30.251
H 12.506 29.904 30.081
C 10.502 29.203 30.09 
H  9.889 28.41  30.574
C 10.407 29.048 28.565
H  9.417 29.24  28.203
H 11.014 29.743 27.981
H 10.644 28.052 28.223
C  9.807 30.47  30.5  
H  8.716 30.363 30.322
H  9.876 30.557 31.558
H 10.215 31.313 29.989
