137

Mg 25.838 28.51  42.445
C 24.45  25.517 41.262
C 27.629 28.782 39.39 
H 28.095 28.867 38.384
C 27.164 31.429 43.481
H 27.541 32.348 43.942
C 24.177 28.177 45.361
H 23.959 28.036 46.376
N 25.967 27.339 40.638
C 25.316 26.141 40.36 
C 25.766 25.613 39.04 
H 26.296 24.675 39.223
C 26.863 26.592 38.523
H 26.595 27.031 37.562
C 26.818 27.651 39.576
C 28.309 26.023 38.443
H 28.978 26.824 37.984
H 28.717 25.738 39.457
H 28.337 25.103 37.9  
C 24.563 25.371 38.116
H 24.059 26.404 38.074
H 24.042 24.595 38.631
C 24.913 24.894 36.712
H 26.016 24.96  36.509
H 24.535 23.906 36.652
C 24.342 25.86  35.631
O 25.017 26.779 35.142
O 23.101 25.463 35.266
N 27.155 29.923 41.576
C 27.782 29.789 40.365
C 28.585 30.929 40.113
C 28.397 31.794 41.221
C 27.551 31.087 42.16 
C 29.253 31.365 38.781
H 30.184 31.837 39.076
H 29.58  30.452 38.152
H 28.643 31.993 38.175
C 28.975 33.156 41.321
H 29.886 33.477 40.66 
C 28.547 34.101 42.169
H 27.637 33.915 42.754
H 29.017 35.093 42.249
N 25.552 29.747 44.062
C 26.232 30.925 44.315
C 25.737 31.543 45.52 
C 24.95  30.522 46.112
C 24.78  29.399 45.137
C 26.023 32.923 46.115
H 27.061 33.06  46.096
H 25.691 33.632 45.387
H 25.546 33.034 47.131
C 24.316 30.574 47.504
H 24.34  29.654 48.028
H 24.832 31.354 48.101
C 22.835 31.037 47.438
H 22.842 32.123 47.214
H 22.426 30.445 46.623
H 22.214 30.954 48.305
N 24.503 27.138 43.192
C 24.002 27.09  44.422
C 23.373 25.808 44.609
C 23.514 25.215 43.406
C 24.246 25.994 42.551
C 22.593 25.33  45.757
H 22.978 25.852 46.621
H 21.505 25.777 45.626
H 22.615 24.269 45.933
C 23.161 24.014 42.695
O 22.505 23.087 43.073
C 23.787 24.145 41.291
H 22.949 23.931 40.634
C 24.786 23.059 41.045
O 25.832 22.869 41.554
O 24.349 22.207 40.059
C 25.296 21.236 39.51 
H 24.789 20.707 38.744
H 26.11  21.757 39.085
H 25.636 20.588 40.334
C 22.464 26.305 34.317
H 23.092 26.478 33.422
H 22.458 27.375 34.669
C 21.079 25.772 34.022
H 20.244 25.58  34.738
C 20.553 25.406 32.789
C 21.389 25.421 31.446
H 21.074 26.229 30.805
H 22.395 25.427 31.577
H 21.074 24.49  30.932
C 19.141 24.879 32.701
H 18.897 24.021 33.367
H 18.952 24.495 31.708
C 18.09  26.022 32.877
H 17.407 25.784 32.039
H 18.537 27.078 32.819
C 17.33  25.896 34.196
H 17.987 25.266 34.874
H 16.453 25.269 33.975
C 16.963 27.158 34.953
H 17.821 27.83  34.905
C 16.735 26.846 36.455
H 16.597 27.784 37.025
H 15.851 26.233 36.591
H 17.639 26.369 36.867
C 15.699 27.894 34.307
H 16.061 28.223 33.337
H 15.478 28.817 34.82 
C 14.301 27.167 34.155
H 13.519 27.908 34.356
H 13.967 26.473 34.906
C 14.163 26.703 32.714
H 15.117 26.573 32.165
H 13.5   27.369 32.175
C 13.474 25.336 32.485
H 14.002 24.611 33.125
C 13.703 24.959 30.95 
H 13.24  25.652 30.251
H 14.726 24.808 30.613
H 13.306 23.963 30.671
C 11.975 25.33  32.858
H 11.626 26.147 32.249
H 11.852 25.755 33.834
C 11.264 24.    32.652
H 10.984 23.771 33.668
H 12.062 23.388 32.226
C 10.126 24.035 31.569
H 10.504 23.568 30.632
H  9.824 25.032 31.301
C  8.842 23.317 32.001
H  8.684 23.756 33.021
C  9.158 21.841 32.097
H 10.035 21.711 32.699
H  8.211 21.425 32.563
H  9.366 21.353 31.111
C  7.774 23.557 30.981
H  6.907 22.942 31.208
H  7.448 24.583 30.989
H  8.138 23.178 30.068
