137

Mg 35.461 27.57  35.28 
C 32.072 27.228 35.551
C 35.251 26.275 31.997
H 35.236 25.968 30.966
C 38.683 27.955 34.877
H 39.753 28.021 34.851
C 35.549 29.168 38.295
H 35.653 29.448 39.348
N 33.921 26.93  33.96 
C 32.568 26.895 34.28 
C 31.61  26.423 33.17 
H 31.07  25.536 33.564
C 32.687 25.986 32.102
H 32.577 26.52  31.185
C 34.037 26.423 32.719
C 32.665 24.464 31.815
H 33.526 24.186 31.19 
H 32.758 23.998 32.801
H 31.77  24.091 31.294
C 30.675 27.501 32.592
H 31.344 28.323 32.322
H 29.947 27.759 33.381
C 29.878 26.936 31.382
H 30.508 27.036 30.493
H 29.813 25.876 31.394
C 28.558 27.525 31.032
O 27.445 26.989 31.094
O 28.796 28.768 30.562
N 36.813 27.032 33.779
C 36.559 26.573 32.521
C 37.753 26.326 31.786
C 38.788 26.911 32.525
C 38.122 27.279 33.797
C 37.74  25.669 30.416
H 37.708 24.62  30.456
H 36.975 26.028 29.753
H 38.652 25.98  30.019
C 40.219 27.194 32.273
H 40.587 28.106 32.724
C 41.078 26.464 31.549
H 40.744 25.634 30.981
H 42.167 26.888 31.455
N 36.924 28.455 36.437
C 38.19  28.534 36.058
C 38.893 29.51  36.949
C 38.004 29.77  37.968
C 36.791 29.085 37.614
C 40.34  30.06  36.756
H 40.452 31.076 37.208
H 41.032 29.318 37.218
H 40.59  30.165 35.759
C 38.169 30.581 39.276
H 37.959 29.868 40.137
H 39.151 31.063 39.283
C 37.303 31.835 39.278
H 37.244 32.182 40.339
H 37.879 32.664 38.743
H 36.308 31.764 38.846
N 34.243 28.113 36.643
C 34.354 28.741 37.851
C 33.111 28.74  38.525
C 32.178 28.274 37.66 
C 32.875 27.883 36.55 
C 32.842 29.161 39.987
H 33.146 30.19  39.995
H 31.782 29.166 40.151
H 33.302 28.51  40.743
C 30.802 27.933 37.546
O 29.869 27.975 38.35 
C 30.644 27.368 36.154
H 30.064 28.09  35.606
C 29.846 26.09  36.237
O 29.838 25.264 37.126
O 28.97  26.015 35.156
C 28.097 24.854 35.094
H 28.566 23.926 34.779
H 27.606 24.589 36.052
H 27.461 25.074 34.21 
C 27.616 29.606 30.215
H 27.127 29.986 31.089
H 26.914 28.926 29.71 
C 28.177 30.66  29.278
H 28.539 30.157 28.383
C 28.22  31.992 29.328
C 27.849 32.737 30.545
H 26.88  33.186 30.326
H 27.779 32.103 31.455
H 28.584 33.449 30.599
C 28.873 32.744 28.213
H 29.572 31.984 27.667
H 29.522 33.444 28.667
C 27.758 33.442 27.361
H 28.03  34.502 27.078
H 26.801 33.563 27.868
C 27.533 32.695 25.938
H 28.181 31.81  25.842
H 27.711 33.573 25.28 
C 26.042 32.288 25.633
H 25.411 33.148 25.921
C 25.702 31.112 26.559
H 24.649 30.898 26.604
H 26.203 30.2   26.312
H 25.915 31.428 27.549
C 25.711 31.904 24.214
H 24.759 31.398 24.135
H 26.405 31.245 23.806
C 25.856 33.149 23.288
H 26.798 33.317 22.709
H 25.851 34.145 23.825
C 24.818 33.132 22.123
H 23.806 33.188 22.546
H 24.902 32.151 21.67 
C 25.005 34.307 21.097
H 25.944 34.392 20.754
C 24.776 35.727 21.726
H 24.737 36.565 21.051
H 23.77  35.71  22.289
H 25.515 35.91  22.556
C 24.157 34.272 19.808
H 24.274 35.149 19.231
H 23.096 34.318 19.932
C 24.43  33.095 18.908
H 23.502 33.108 18.295
H 24.451 32.129 19.407
C 25.726 33.327 18.111
H 26.649 32.865 18.529
H 25.789 34.375 18.073
C 25.49  32.89  16.614
H 24.366 32.963 16.473
C 25.858 31.453 16.271
H 25.522 31.305 15.202
H 26.941 31.253 16.342
H 25.286 30.738 16.911
C 26.265 33.831 15.666
H 26.063 33.55  14.606
H 25.942 34.826 15.811
H 27.314 33.755 15.767
