137

Mg 24.695 32.013 30.257
C 23.913 29.025 31.808
C 21.446 32.921 30.356
H 20.367 33.109 30.501
C 25.636 35.012 29.235
H 26.004 35.919 28.779
C 28.124 31.038 30.274
H 29.195 30.666 30.182
N 22.881 31.115 30.966
C 22.833 29.881 31.541
C 21.363 29.49  31.845
H 21.121 28.529 31.265
C 20.534 30.671 31.192
H 20.092 31.252 32.01 
C 21.644 31.621 30.761
C 19.475 30.19  30.133
H 19.27  31.105 29.518
H 20.007 29.558 29.446
H 18.578 29.795 30.582
C 21.051 29.172 33.347
H 21.252 30.126 33.877
H 21.782 28.446 33.765
C 19.55  28.857 33.636
H 19.11  28.598 32.653
H 19.52  28.076 34.355
C 18.774 30.017 34.233
O 18.957 30.263 35.416
O 17.836 30.542 33.349
N 23.693 33.74  29.885
C 22.331 33.937 29.977
C 21.982 35.243 29.508
C 23.112 35.809 29.042
C 24.267 34.85  29.37 
C 20.532 35.767 29.368
H 20.184 35.721 28.325
H 19.765 35.291 30.093
H 20.66  36.775 29.662
C 23.318 37.141 28.551
H 24.105 37.756 29.005
C 22.521 37.707 27.635
H 21.864 37.103 27.062
H 22.711 38.736 27.319
N 26.635 32.911 29.847
C 26.729 34.21  29.542
C 28.204 34.508 29.34 
C 28.86  33.293 29.55 
C 27.832 32.348 29.893
C 28.872 35.822 28.897
H 28.159 36.619 28.933
H 29.617 36.089 29.67 
H 29.212 35.749 27.883
C 30.327 33.091 29.567
H 30.679 32.123 29.111
H 30.849 33.885 28.981
C 31.053 33.146 30.815
H 30.692 32.32  31.427
H 32.141 33.202 30.548
H 30.807 34.074 31.3  
N 25.806 30.492 30.995
C 27.177 30.173 30.922
C 27.393 28.838 31.38 
C 26.126 28.352 31.765
C 25.221 29.386 31.472
C 28.692 28.105 31.432
H 28.639 27.161 31.929
H 29.02  28.08  30.448
H 29.48  28.667 32.018
C 25.495 27.145 32.333
O 25.909 26.058 32.806
C 24.056 27.605 32.405
H 23.757 27.727 33.384
C 23.406 26.514 31.705
O 23.572 26.287 30.548
O 22.565 25.815 32.559
C 22.016 24.611 32.088
H 22.783 23.843 32.076
H 21.275 24.17  32.724
H 21.473 24.626 31.114
C 17.146 31.583 33.966
H 17.772 32.387 34.36 
H 16.591 31.272 34.784
C 16.175 32.116 32.947
H 15.392 31.41  32.659
C 16.317 33.177 32.212
C 17.249 34.297 32.534
H 18.276 34.077 32.173
H 16.912 35.138 31.929
H 17.241 34.532 33.534
C 15.281 33.409 31.118
H 15.013 32.406 30.782
H 15.636 33.933 30.247
C 14.066 34.17  31.789
H 14.297 34.708 32.725
H 13.205 33.507 31.963
C 13.604 35.31  30.891
H 12.549 35.114 30.613
H 14.188 35.322 29.934
C 13.572 36.783 31.563
H 13.069 36.481 32.466
C 12.646 37.902 30.999
H 12.377 38.501 31.854
H 13.056 38.618 30.273
H 11.745 37.474 30.592
C 14.968 37.397 31.802
H 15.473 36.814 32.531
H 14.806 38.344 32.302
C 15.757 37.504 30.508
H 15.085 37.345 29.691
H 16.58  36.724 30.449
C 16.509 38.892 30.258
H 17.507 38.82  30.821
H 15.832 39.675 30.714
C 16.811 39.333 28.842
H 15.787 39.486 28.457
C 17.642 38.252 28.043
H 16.987 37.368 27.953
H 17.875 38.712 27.072
H 18.653 38.11  28.488
C 17.493 40.763 28.871
H 17.883 40.962 27.873
H 18.465 40.65  29.37 
C 16.837 42.064 29.455
H 15.8   41.914 29.815
H 16.636 42.787 28.638
C 17.369 42.565 30.827
H 18.229 41.945 31.086
H 16.672 42.365 31.567
C 17.784 44.042 30.814
H 17.024 44.754 30.592
C 18.912 44.363 29.873
H 19.852 43.953 30.245
H 18.786 44.015 28.888
H 19.133 45.441 29.777
C 18.224 44.444 32.221
H 18.282 45.501 32.24 
H 17.536 44.076 32.989
H 19.19  43.982 32.42 
