137

Mg 29.416 27.256 34.088
C 27.12  26.968 31.507
C 31.844 27.366 31.648
H 32.674 27.558 30.918
C 31.552 28.403 36.376
H 32.245 28.827 37.176
C 26.75  27.393 36.296
H 25.978 27.252 37.078
N 29.445 26.966 31.831
C 28.405 26.958 31.015
C 28.869 26.884 29.535
H 28.607 25.983 29.09 
C 30.374 27.042 29.633
H 30.543 28.058 29.145
C 30.572 27.119 31.153
C 31.226 25.957 28.91 
H 30.964 24.966 29.358
H 30.99  25.854 27.885
H 32.28  26.213 28.986
C 28.195 27.983 28.689
H 28.519 28.997 28.954
H 27.125 27.925 28.776
C 28.379 27.852 27.141
H 29.077 28.61  26.716
H 28.868 26.891 26.909
C 27.237 27.624 26.221
O 26.833 26.53  25.834
O 26.644 28.84  26.006
N 31.457 27.638 34.024
C 32.252 27.668 32.985
C 33.583 27.955 33.317
C 33.536 28.177 34.725
C 32.128 28.049 35.117
C 34.784 27.909 32.359
H 34.6   27.421 31.411
H 34.967 28.945 32.094
H 35.651 27.427 32.879
C 34.595 28.404 35.739
H 34.328 28.026 36.671
C 35.79  28.99  35.553
H 36.137 29.444 34.587
H 36.469 29.161 36.436
N 29.16  27.92  35.958
C 30.207 28.285 36.81 
C 29.673 28.541 38.139
C 28.278 28.272 38.06 
C 27.971 27.899 36.713
C 30.476 29.072 39.336
H 30.994 28.325 39.918
H 31.166 29.826 38.991
H 29.78  29.657 39.987
C 27.297 28.481 39.175
H 26.862 27.545 39.415
H 27.848 28.772 40.052
C 26.361 29.557 38.797
H 26.913 30.45  38.606
H 25.756 29.218 37.929
H 25.668 29.751 39.7  
N 27.314 27.193 33.957
C 26.392 27.135 34.951
C 25.083 26.9   34.396
C 25.269 26.84  33.047
C 26.652 26.997 32.827
C 23.865 27.016 35.156
H 23.995 27.629 36.074
H 22.992 27.435 34.625
H 23.591 26.105 35.601
C 24.664 26.705 31.784
O 23.444 26.604 31.504
C 25.855 26.717 30.77 
H 25.472 27.48  30.053
C 25.864 25.471 30.03 
O 25.901 24.381 30.629
O 25.919 25.701 28.691
C 25.726 24.429 27.924
H 26.478 23.64  28.254
H 24.814 23.954 28.08 
H 25.725 24.564 26.805
C 25.262 28.819 25.386
H 25.284 28.05  24.617
H 24.975 29.738 24.848
C 24.357 28.529 26.607
H 24.433 29.302 27.381
C 23.743 27.371 26.927
C 23.621 26.156 26.014
H 23.818 25.32  26.628
H 22.564 26.215 25.697
H 24.311 26.036 25.137
C 22.841 27.39  28.186
H 23.028 28.291 28.768
H 23.192 26.558 28.796
C 21.284 27.381 28.139
H 20.927 27.305 27.128
H 20.907 28.34  28.555
C 20.583 26.453 29.212
H 19.769 27.047 29.675
H 21.279 26.078 29.995
C 19.994 25.112 28.668
H 19.276 25.454 27.906
C 19.036 24.45  29.675
H 19.632 24.175 30.503
H 18.205 25.115 30.04 
H 18.643 23.577 29.136
C 21.018 24.18  28.122
H 21.628 24.75  27.431
H 20.472 23.384 27.568
C 22.044 23.617 29.106
H 21.72  23.821 30.069
H 22.913 24.273 29.051
C 22.583 22.198 29.017
H 23.62  22.196 28.831
H 22.101 21.638 28.172
C 22.38  21.277 30.265
H 22.856 21.801 31.159
C 23.057 19.863 29.947
H 22.996 19.15  30.79 
H 22.528 19.491 29.038
H 24.147 20.03  29.776
C 20.91  21.126 30.535
H 20.42  20.688 29.702
H 20.386 22.108 30.721
C 20.567 20.301 31.75 
H 19.99  20.937 32.442
H 21.398 19.924 32.322
C 19.621 19.097 31.506
H 20.134 18.224 31.88 
H 19.427 19.039 30.494
C 18.21  19.264 32.212
H 18.266 19.611 33.256
C 17.408 17.973 32.369
H 17.24  17.654 31.342
H 17.977 17.165 32.782
H 16.499 18.129 32.872
C 17.318 20.208 31.404
H 17.71  21.228 31.554
H 17.38  19.957 30.302
H 16.336 20.198 31.737
