137

Mg 36.775 32.685 34.781
C 34.279 31.088 33.003
C 38.606 32.893 31.903
H 39.384 33.011 31.06 
C 39.177 34.162 36.504
H 39.895 34.839 36.976
C 35.059 32.13  37.737
H 34.489 31.903 38.577
N 36.443 32.045 32.64 
C 35.332 31.457 32.12 
C 35.409 31.2   30.529
H 35.214 30.106 30.416
C 36.949 31.601 30.294
H 36.934 32.418 29.503
C 37.352 32.274 31.663
C 37.817 30.362 29.944
H 38.759 30.737 29.591
H 37.847 29.746 30.815
H 37.404 29.715 29.137
C 34.37  31.879 29.751
H 34.537 32.98  29.832
H 33.428 31.587 30.152
C 34.338 31.651 28.243
H 34.729 32.552 27.729
H 35.012 30.915 28.013
C 32.986 31.296 27.58 
O 32.766 30.231 27.034
O 32.077 32.354 27.683
N 38.546 33.556 34.296
C 39.108 33.516 33.063
C 40.355 34.282 33.02 
C 40.604 34.646 34.359
C 39.399 34.145 35.11 
C 41.176 34.534 31.768
H 41.467 33.581 31.326
H 40.568 35.085 31.035
H 41.949 35.186 32.079
C 41.804 35.225 35.079
H 41.609 35.495 36.085
C 43.049 35.377 34.549
H 43.331 35.088 33.579
H 43.903 35.797 35.175
N 37.163 33.071 36.861
C 38.233 33.662 37.315
C 38.14  33.707 38.795
C 36.826 33.283 39.169
C 36.267 32.841 37.918
C 39.089 34.488 39.763
H 39.481 35.463 39.322
H 38.415 34.787 40.599
H 39.947 33.94  40.107
C 36.136 33.155 40.529
H 35.593 32.177 40.508
H 36.884 33.174 41.285
C 35.1   34.272 40.706
H 34.475 33.967 41.48 
H 35.496 35.222 40.983
H 34.438 34.334 39.847
N 35.041 31.925 35.319
C 34.418 31.639 36.571
C 33.165 30.928 36.433
C 33.078 30.655 35.059
C 34.202 31.282 34.432
C 32.218 30.567 37.477
H 31.213 30.892 37.374
H 32.343 29.504 37.521
H 32.518 30.973 38.403
C 32.261 29.986 34.086
O 31.27  29.336 34.204
C 33.003 30.247 32.657
H 32.236 30.716 32.001
C 33.359 28.828 32.206
O 33.63  27.898 33.012
O 33.38  28.759 30.836
C 33.743 27.505 30.138
H 33.755 27.637 29.011
H 34.797 27.411 30.419
H 33.242 26.582 30.403
C 30.874 32.155 26.969
H 30.199 31.374 27.407
H 30.905 31.866 25.893
C 30.262 33.527 26.979
H 30.759 34.181 26.298
C 29.231 34.073 27.628
C 28.28  33.464 28.629
H 28.34  34.057 29.549
H 27.383 33.556 28.175
H 28.374 32.446 28.941
C 28.828 35.47  27.364
H 29.603 35.997 26.972
H 28.505 35.958 28.288
C 27.779 35.538 26.199
H 27.528 34.522 25.917
H 28.099 36.014 25.368
C 26.409 36.253 26.542
H 26.674 36.71  27.469
H 25.641 35.441 26.761
C 25.936 37.325 25.545
H 25.795 36.878 24.589
C 26.766 38.568 25.409
H 26.806 39.216 26.303
H 27.724 38.221 25.181
H 26.495 39.279 24.611
C 24.523 37.817 25.8  
H 24.319 38.633 25.131
H 24.686 38.351 26.758
C 23.442 36.72  25.908
H 23.713 35.795 25.368
H 22.532 37.027 25.291
C 22.943 36.466 27.258
H 22.136 37.113 27.438
H 23.557 36.832 28.066
C 22.354 35.09  27.497
H 23.079 34.269 27.159
C 20.966 34.862 26.744
H 20.574 33.794 26.847
H 20.178 35.546 27.116
H 21.097 35.02  25.701
C 22.155 34.809 29.018
H 21.696 33.822 29.009
H 21.371 35.499 29.444
C 23.487 34.78  29.933
H 23.386 35.693 30.534
H 24.367 34.89  29.333
C 23.537 33.609 30.894
H 22.57  33.101 31.048
H 23.677 34.111 31.879
C 24.711 32.688 30.669
H 25.508 33.344 30.713
C 24.841 31.986 29.358
H 24.685 32.61  28.487
H 25.796 31.494 29.12 
H 24.168 31.1   29.241
C 24.876 31.762 31.89 
H 25.82  31.286 31.918
H 24.845 32.375 32.827
H 24.153 30.975 31.842
