137

Mg 17.996 24.344 29.396
C 21.21  24.909 30.343
C 17.115 27.518 30.601
H 16.794 28.514 31.021
C 14.861 23.723 28.352
H 13.762 23.678 28.167
C 18.986 21.273 27.877
H 19.39  20.306 27.493
N 19.066 25.997 30.385
C 20.378 25.964 30.694
C 20.738 27.236 31.385
H 21.006 26.956 32.402
C 19.46  28.11  31.406
H 19.555 29.013 30.732
C 18.481 27.202 30.765
C 19.067 28.622 32.859
H 18.301 29.416 32.796
H 18.677 27.849 33.521
H 19.908 29.105 33.299
C 22.069 27.928 30.866
H 21.872 27.796 29.775
H 23.088 27.456 31.187
C 22.287 29.405 31.315
H 21.418 29.861 31.769
H 23.093 29.357 32.011
C 22.549 30.449 30.289
O 22.134 30.368 29.139
O 23.215 31.55  30.821
N 16.345 25.45  29.478
C 16.18  26.661 30.004
C 14.759 27.038 29.96 
C 14.048 25.943 29.377
C 15.107 24.967 29.015
C 14.205 28.388 30.474
H 14.648 28.605 31.41 
H 14.412 29.055 29.599
H 13.117 28.327 30.535
C 12.6   25.941 29.128
H 12.025 26.394 29.942
C 11.915 25.605 28.006
H 12.448 25.207 27.08 
H 10.834 25.569 27.998
N 17.04  22.764 28.266
C 15.733 22.691 27.993
C 15.394 21.463 27.297
C 16.659 20.83  27.096
C 17.671 21.654 27.763
C 14.103 21.133 26.613
H 14.232 21.407 25.537
H 13.84  20.168 26.811
H 13.325 21.729 27.078
C 16.836 19.541 26.32 
H 17.27  18.794 27.043
H 15.878 19.25  25.979
C 17.557 19.737 25.029
H 17.114 20.397 24.322
H 18.623 20.051 25.259
H 17.549 18.758 24.531
N 19.606 23.255 29.279
C 19.887 22.073 28.587
C 21.315 21.745 28.827
C 21.86  22.785 29.584
C 20.807 23.733 29.728
C 22.007 20.501 28.354
H 21.636 19.608 28.823
H 21.665 20.429 27.333
H 23.121 20.595 28.539
C 23.079 23.294 30.216
O 24.22  22.869 30.214
C 22.668 24.705 30.708
H 23.28  25.515 30.234
C 22.849 24.686 32.174
O 22.213 23.983 32.964
O 23.825 25.605 32.568
C 24.015 25.603 34.054
H 24.22  24.63  34.517
H 24.93  26.149 34.297
H 23.119 26.054 34.486
C 23.297 32.669 29.862
H 23.658 32.443 28.848
H 24.052 33.36  30.206
C 21.996 33.443 29.745
H 21.125 32.892 29.196
C 21.783 34.767 30.068
C 22.687 35.761 30.877
H 22.036 36.024 31.701
H 23.529 35.321 31.33 
H 22.846 36.628 30.296
C 20.549 35.476 29.557
H 20.375 34.81  28.669
H 20.848 36.47  29.133
C 19.403 35.402 30.488
H 19.75  34.69  31.272
H 18.593 34.847 30.074
C 19.    36.72  31.198
H 18.366 37.394 30.622
H 19.935 37.147 31.351
C 18.35  36.487 32.564
H 18.952 35.866 33.199
C 16.95  35.902 32.332
H 16.757 35.925 31.243
H 17.069 34.916 32.616
H 16.177 36.373 32.904
C 18.199 37.79  33.372
H 17.489 37.7   34.119
H 17.71  38.468 32.68 
C 19.513 38.385 33.938
H 20.346 38.079 33.317
H 19.705 37.948 34.962
C 19.531 39.925 34.093
H 19.679 40.14  35.141
H 18.552 40.372 33.922
C 20.476 40.719 33.158
H 21.455 40.338 33.313
C 20.517 42.193 33.659
H 19.593 42.765 33.31 
H 20.712 42.304 34.763
H 21.382 42.58  33.1  
C 19.939 40.564 31.652
H 19.108 41.22  31.557
H 19.758 39.498 31.7  
C 20.9   40.96  30.615
H 21.905 40.881 31.045
H 20.64  41.957 30.435
C 20.836 40.257 29.232
H 20.456 40.962 28.419
H 20.205 39.373 29.325
C 22.191 39.579 28.704
H 22.41  38.854 29.424
C 23.389 40.559 28.571
H 24.22  39.963 28.277
H 23.196 41.208 27.656
H 23.741 41.196 29.411
C 21.934 38.859 27.338
H 21.575 39.581 26.577
H 22.802 38.265 26.968
H 21.138 38.152 27.566
