137

Mg 20.889 32.632 33.231
C 20.105 29.288 33.237
C 18.017 33.198 35.075
H 17.211 33.337 35.732
C 21.464 35.973 33.071
H 21.667 36.968 32.838
C 23.676 32.02  31.27 
H 24.472 31.861 30.56 
N 19.317 31.318 34.102
C 19.169 29.998 33.937
C 18.    29.455 34.717
H 17.465 28.79  34.027
C 17.253 30.75  35.055
H 17.016 30.735 36.112
C 18.267 31.84  34.698
C 15.893 30.985 34.446
H 16.008 31.001 33.328
H 15.301 30.191 34.845
H 15.561 31.958 34.876
C 18.425 28.656 35.955
H 18.921 29.296 36.655
H 19.193 27.955 35.77 
C 17.333 27.672 36.584
H 16.696 27.294 35.719
H 17.917 26.834 37.038
C 16.34  28.138 37.6  
O 16.286 27.727 38.72 
O 15.431 29.012 37.021
N 19.965 34.291 33.966
C 18.848 34.327 34.818
C 18.575 35.68  35.292
C 19.537 36.477 34.598
C 20.379 35.568 33.833
C 17.489 35.949 36.243
H 17.138 36.958 36.443
H 16.59  35.36  35.984
H 17.822 35.671 37.226
C 19.688 37.97  34.696
H 20.209 38.378 33.932
C 19.277 38.785 35.717
H 18.663 38.45  36.619
H 19.59  39.858 35.803
N 22.32  33.831 32.39 
C 22.338 35.171 32.292
C 23.395 35.637 31.32 
C 24.044 34.463 30.936
C 23.334 33.363 31.535
C 23.604 37.025 30.831
H 24.336 37.088 29.973
H 22.622 37.319 30.429
H 24.022 37.667 31.65 
C 25.292 34.384 29.994
H 25.166 33.653 29.16 
H 25.54  35.286 29.515
C 26.569 34.006 30.819
H 26.683 34.671 31.661
H 26.486 32.961 31.104
H 27.404 34.251 30.22 
N 21.823 31.072 32.558
C 22.967 30.932 31.803
C 23.251 29.526 31.45 
C 22.138 28.825 31.999
C 21.289 29.822 32.655
C 24.282 28.968 30.532
H 25.221 28.724 30.936
H 23.808 28.03  30.199
H 24.451 29.612 29.631
C 21.53  27.55  32.001
O 21.861 26.48  31.498
C 20.315 27.769 32.996
H 20.386 27.288 33.946
C 19.207 27.108 32.395
O 18.763 27.466 31.292
O 18.737 25.966 33.083
C 17.777 25.146 32.433
H 17.494 24.422 33.185
H 16.848 25.61  32.083
H 18.18  24.781 31.537
C 14.247 29.13  37.831
H 14.373 29.775 38.677
H 13.72  28.229 38.091
C 13.418 29.927 36.79 
H 12.872 29.359 36.067
C 13.261 31.221 36.679
C 13.883 32.237 37.686
H 14.879 32.42  37.353
H 13.308 33.15  37.542
H 13.841 31.84  38.668
C 12.442 31.85  35.622
H 12.46  31.142 34.773
H 13.045 32.755 35.416
C 10.976 32.077 36.148
H 10.762 33.039 36.517
H 10.637 31.495 37.007
C 10.018 31.738 35.121
H  9.935 30.731 35.291
H 10.444 31.87  34.12 
C  8.677 32.524 35.203
H  8.398 32.543 36.263
C  7.663 31.69  34.545
H  6.714 32.186 34.705
H  7.782 31.676 33.424
H  7.535 30.726 34.979
C  8.778 34.025 34.792
H  9.419 34.449 35.572
H  7.816 34.571 34.971
C  9.41  34.421 33.413
H  8.701 35.041 32.87 
H  9.564 33.508 32.864
C 10.711 35.208 33.498
H 11.488 34.562 33.853
H 10.433 36.004 34.126
C 11.128 35.881 32.194
H 10.298 36.455 31.872
C 11.511 34.845 31.149
H 12.398 34.396 31.519
H 10.842 34.033 30.958
H 11.736 35.341 30.159
C 12.239 36.899 32.414
H 12.493 37.321 31.409
H 13.158 36.403 32.762
C 11.884 38.124 33.304
H 10.836 38.026 33.63 
H 11.932 38.974 32.644
C 12.753 38.137 34.533
H 13.311 37.186 34.629
H 12.081 38.138 35.284
C 13.873 39.312 34.608
H 13.34  40.222 34.781
C 14.645 39.481 33.294
H 14.004 39.898 32.513
H 15.503 40.092 33.513
H 15.04  38.519 32.951
C 14.952 39.028 35.692
H 15.4   39.966 35.899
H 14.476 38.554 36.519
H 15.659 38.309 35.293
