137

Mg 19.523 26.634 32.734
C 21.186 24.649 35.002
C 17.44  27.679 35.258
H 16.637 27.982 35.918
C 17.981 28.482 30.462
H 17.434 29.106 29.724
C 21.81  25.666 30.302
H 22.582 25.554 29.502
N 19.369 26.183 34.829
C 20.144 25.331 35.552
C 19.702 25.253 37.064
H 19.459 24.202 37.42 
C 18.421 26.133 37.143
H 18.595 27.01  37.722
C 18.397 26.694 35.663
C 17.152 25.382 37.668
H 16.887 24.602 36.932
H 17.355 25.053 38.696
H 16.377 26.116 37.751
C 20.798 25.762 38.075
H 21.159 26.756 37.83 
H 21.544 25.044 37.893
C 20.475 25.604 39.549
H 19.449 25.149 39.717
H 21.142 24.775 39.944
C 20.619 26.874 40.306
O 21.67  27.398 40.645
O 19.403 27.404 40.337
N 17.961 27.859 32.825
C 17.224 28.22  33.944
C 16.11  29.1   33.538
C 16.303 29.247 32.109
C 17.492 28.499 31.723
C 15.044 29.728 34.366
H 14.165 29.114 34.322
H 15.388 30.037 35.377
H 14.716 30.605 33.794
C 15.525 29.995 31.129
H 15.957 30.346 30.279
C 14.216 30.215 31.276
H 13.677 29.778 32.129
H 13.665 30.817 30.493
N 19.759 26.92  30.619
C 19.058 27.778 29.888
C 19.425 27.607 28.454
C 20.619 26.972 28.457
C 20.777 26.485 29.814
C 18.552 28.183 27.378
H 18.449 29.238 27.372
H 18.859 27.931 26.377
H 17.58  27.707 27.583
C 21.516 26.622 27.283
H 21.796 25.579 27.41 
H 20.971 26.725 26.337
C 22.842 27.436 27.3  
H 22.605 28.45  27.496
H 23.438 26.906 28.066
H 23.378 27.318 26.341
N 21.127 25.421 32.589
C 21.974 25.102 31.586
C 22.987 24.168 31.96 
C 22.716 23.954 33.354
C 21.595 24.741 33.679
C 24.15  23.646 31.135
H 24.143 23.891 30.038
H 25.021 24.058 31.623
H 24.092 22.551 31.204
C 23.127 23.202 34.549
O 24.036 22.401 34.779
C 22.137 23.63  35.653
H 22.844 24.047 36.369
C 21.375 22.376 36.027
O 20.633 21.683 35.303
O 21.815 21.929 37.266
C 21.227 20.608 37.604
H 21.214 20.432 38.653
H 20.139 20.577 37.31 
H 21.764 19.806 37.062
C 19.24  28.651 40.966
H 20.032 29.37  40.762
H 19.177 28.56  42.024
C 17.851 29.12  40.521
H 17.001 28.574 40.97 
C 17.537 29.969 39.478
C 18.623 30.733 38.697
H 19.505 30.142 38.594
H 18.25  30.982 37.674
H 18.811 31.582 39.241
C 16.084 30.111 38.951
H 15.503 29.544 39.684
H 16.026 29.737 37.954
C 15.502 31.515 38.958
H 16.181 32.251 39.293
H 14.685 31.534 39.567
C 15.24  32.222 37.643
H 15.714 31.652 36.875
H 15.838 33.161 37.585
C 13.727 32.477 37.251
H 13.491 33.135 38.109
C 12.847 31.18  37.302
H 11.824 31.504 37.036
H 13.182 30.564 36.46 
H 12.844 30.669 38.254
C 13.556 33.261 35.929
H 12.518 33.505 35.693
H 14.016 32.726 35.129
C 14.181 34.672 35.897
H 15.238 34.511 36.01 
H 13.788 35.321 36.663
C 13.972 35.501 34.618
H 13.341 36.368 34.917
H 13.287 34.965 33.92 
C 15.304 36.033 33.942
H 15.76  35.109 33.611
C 16.236 36.873 34.907
H 17.043 37.256 34.292
H 15.702 37.762 35.333
H 16.691 36.238 35.663
C 15.066 36.901 32.675
H 16.099 37.191 32.356
H 14.555 37.844 32.836
C 14.204 36.223 31.525
H 13.143 36.609 31.646
H 14.155 35.186 31.669
C 14.802 36.583 30.173
H 15.678 37.173 30.09 
H 13.953 37.311 29.88 
C 14.839 35.525 29.018
H 14.013 34.839 29.156
C 15.988 34.565 29.098
H 15.966 33.836 28.248
H 16.858 35.125 28.974
H 15.918 34.011 30.034
C 14.598 36.272 27.664
H 14.659 35.384 26.987
H 13.598 36.705 27.65 
H 15.28  37.086 27.463
