137

Mg 36.709 34.821 35.511
C 33.94  33.121 34.515
C 38.48 33.29 33.01
H 39.066 32.853 32.115
C 39.562 36.37  36.701
H 40.36  36.959 37.146
C 35.057 35.719 38.34 
H 34.608 36.034 39.291
N 36.173 33.407 33.936
C 35.03  32.87  33.687
C 35.052 31.992 32.426
H 34.648 31.005 32.661
C 36.571 31.802 32.151
H 36.811 31.986 31.082
C 37.158 32.914 33.086
C 37.08  30.412 32.549
H 38.105 30.257 32.255
H 37.06  30.295 33.668
H 36.381 29.622 32.114
C 34.299 32.564 31.108
H 34.605 33.533 30.828
H 33.202 32.786 31.382
C 34.329 31.579 29.939
H 34.421 32.313 29.064
H 35.208 30.803 29.903
C 32.969 30.868 29.681
O 32.703 29.721 30.026
O 32.074 31.727 29.111
N 38.642 34.908 34.846
C 39.141 34.195 33.809
C 40.56  34.529 33.658
C 40.88  35.457 34.699
C 39.643 35.588 35.466
C 41.423 33.925 32.58 
H 42.472 34.091 32.776
H 41.33  32.871 32.363
H 41.136 34.508 31.733
C 42.149 36.125 35.013
H 42.082 36.916 35.691
C 43.405 35.786 34.635
H 43.696 34.882 34.117
H 44.259 36.399 35.059
N 37.193 35.909 37.205
C 38.359 36.49  37.462
C 38.275 37.278 38.697
C 36.93  37.136 39.166
C 36.328 36.244 38.228
C 39.434 38.005 39.27 
H 39.089 38.431 40.125
H 40.299 37.398 39.557
H 39.844 38.835 38.699
C 36.302 37.739 40.357
H 35.868 36.992 40.963
H 37.026 38.273 40.909
C 35.269 38.737 40.007
H 35.664 39.434 39.268
H 34.393 38.215 39.547
H 34.799 39.204 40.864
N 34.914 34.419 36.382
C 34.375 34.855 37.562
C 33.032 34.249 37.749
C 32.834 33.595 36.55 
C 33.969 33.755 35.748
C 32.004 34.471 38.873
H 31.587 35.467 38.84 
H 31.234 33.694 39.059
H 32.476 34.475 39.909
C 31.93  32.824 35.739
O 30.797 32.341 36.014
C 32.539 32.568 34.426
H 31.945 33.051 33.67 
C 32.51  31.088 34.269
O 33.098 30.286 35.024
O 31.846 30.73  33.127
C 31.716 29.225 33.002
H 32.735 28.765 32.681
H 31.533 28.726 33.939
H 30.937 28.888 32.282
C 30.78  31.104 28.841
H 30.201 31.014 29.779
H 30.887 30.107 28.406
C 30.044 31.892 27.839
H 30.334 31.706 26.815
C 29.061 32.761 28.07 
C 28.613 33.261 29.367
H 28.479 34.295 29.249
H 27.768 32.75  29.802
H 29.42  33.221 30.089
C 28.314 33.298 26.887
H 28.834 33.094 25.928
H 28.354 34.341 27.   
C 26.853 32.863 26.56 
H 26.802 31.799 26.826
H 26.765 32.916 25.458
C 25.831 33.539 27.372
H 25.381 34.398 26.853
H 26.321 34.083 28.19 
C 24.832 32.676 28.014
H 25.407 31.978 28.545
C 23.933 31.988 26.931
H 23.317 32.723 26.461
H 24.476 31.401 26.146
H 23.319 31.288 27.563
C 24.011 33.512 29.092
H 23.407 34.264 28.486
H 24.674 34.026 29.818
C 23.106 32.669 30.018
H 23.114 33.222 30.959
H 23.594 31.73  30.147
C 21.594 32.539 29.562
H 21.544 31.468 29.246
H 21.36  33.157 28.682
C 20.516 32.904 30.632
H 21.019 33.757 31.198
C 20.413 31.798 31.641
H 19.619 31.916 32.402
H 20.062 30.874 31.107
H 21.387 31.582 32.132
C 19.172 33.358 30.055
H 18.647 32.513 29.626
H 19.538 33.959 29.168
C 18.338 34.23  31.032
H 18.207 35.246 30.564
H 19.015 34.396 31.873
C 16.966 33.663 31.517
H 16.898 33.575 32.629
H 16.976 32.617 31.103
C 15.71  34.369 30.822
H 16.12  34.689 29.895
C 15.171 35.537 31.637
H 14.431 36.153 31.125
H 14.898 35.141 32.585
H 16.132 36.162 31.662
C 14.549 33.399 30.49 
H 13.723 33.976 30.084
H 14.9   32.697 29.757
H 14.261 32.865 31.398
