137

Mg 21.456 18.715 25.233
C 23.882 18.426 22.797
C 22.904 21.68  26.226
H 23.296 22.586 26.549
C 18.727 19.464 27.095
H 17.861 19.759 27.749
C 19.745 16.082 23.867
H 19.203 15.221 23.543
N 23.201 19.859 24.632
C 24.011 19.604 23.532
C 25.113 20.625 23.386
H 26.045 20.112 23.655
C 24.854 21.632 24.535
H 24.628 22.535 23.998
C 23.642 20.983 25.254
C 26.039 21.883 25.509
H 26.49  20.85  25.749
H 26.819 22.459 25.018
H 25.772 22.385 26.46 
C 25.104 21.344 21.975
H 24.254 22.06  21.924
H 24.899 20.602 21.265
C 26.433 22.002 21.551
H 27.289 21.501 22.014
H 26.605 21.932 20.453
C 26.632 23.361 22.194
O 27.695 23.706 22.678
O 25.487 24.12  21.997
N 20.974 20.257 26.541
C 21.684 21.363 26.835
C 20.985 22.263 27.754
C 19.79  21.547 28.068
C 19.772 20.375 27.2  
C 21.415 23.547 28.202
H 21.668 24.112 27.33 
H 20.546 24.15  28.716
H 22.33  23.53  28.893
C 18.621 21.932 28.973
H 17.635 21.688 28.746
C 18.803 22.635 30.125
H 19.813 22.968 30.469
H 17.93  23.096 30.617
N 19.61  17.87  25.485
C 18.582 18.324 26.343
C 17.465 17.457 26.179
C 17.728 16.466 25.241
C 19.086 16.833 24.804
C 16.252 17.696 27.105
H 15.922 18.645 26.829
H 15.512 16.961 27.004
H 16.454 17.787 28.143
C 16.864 15.3   24.952
H 17.389 14.502 24.438
H 16.501 14.882 25.885
C 15.61  15.638 24.166
H 15.816 15.747 23.115
H 14.852 14.839 24.344
H 15.155 16.502 24.514
N 21.756 17.354 23.785
C 20.975 16.394 23.243
C 21.702 15.59  22.255
C 22.872 16.434 22.026
C 22.79  17.514 22.946
C 21.338 14.264 21.635
H 20.306 14.306 21.319
H 21.885 14.072 20.684
H 21.587 13.424 22.284
C 24.115 16.519 21.276
O 24.604 15.813 20.371
C 24.753 17.828 21.705
H 24.906 18.492 20.858
C 26.107 17.542 22.27 
O 26.403 16.791 23.164
O 27.022 18.311 21.612
C 28.419 18.232 22.113
H 28.611 17.926 23.146
H 29.043 17.419 21.573
H 28.878 19.197 21.868
C 25.646 25.405 22.757
H 26.543 25.95  22.343
H 25.873 25.089 23.803
C 24.36  26.192 22.644
H 24.092 26.614 21.632
C 23.429 26.403 23.594
C 23.274 25.793 24.988
H 22.263 25.354 25.075
H 24.043 24.993 24.967
H 23.491 26.474 25.779
C 22.066 27.145 23.35 
H 21.171 26.453 23.449
H 21.91  27.487 22.357
C 21.661 28.235 24.364
H 22.65  28.357 24.77 
H 20.958 27.812 25.108
C 21.003 29.536 23.782
H 19.922 29.534 23.922
H 21.232 29.554 22.719
C 21.572 30.849 24.323
H 22.627 30.92  24.031
C 21.396 30.936 25.851
H 21.801 31.889 26.226
H 20.399 30.925 26.169
H 21.817 30.102 26.322
C 20.857 32.063 23.586
H 21.144 33.009 24.028
H 19.786 31.993 23.987
C 20.899 32.081 22.024
H 19.986 31.556 21.61 
H 21.698 31.52  21.556
C 20.912 33.538 21.531
H 21.806 33.684 20.965
H 20.777 34.205 22.325
C 19.66  33.862 20.562
H 19.614 33.252 19.693
C 19.903 35.286 20.   
H 19.132 35.674 19.343
H 20.035 35.985 20.776
H 20.825 35.22  19.432
C 18.277 33.64  21.268
H 18.33  34.255 22.178
H 18.167 32.654 21.58 
C 16.923 33.9   20.503
H 16.156 33.27  20.979
H 16.956 33.668 19.456
C 16.361 35.337 20.582
H 16.247 35.594 19.517
H 17.168 35.997 20.962
C 15.001 35.645 21.327
H 14.312 34.894 20.958
C 14.521 37.048 20.993
H 14.492 37.271 19.908
H 13.557 37.024 21.472
H 15.277 37.592 21.468
C 15.212 35.398 22.804
H 14.288 35.782 23.31 
H 15.207 34.337 23.026
H 16.068 35.885 23.235
