137

Mg 21.473 24.55  37.492
C 20.345 21.61  38.881
C 21.828 22.873 34.518
H 21.791 22.404 33.533
C 22.516 27.388 36.018
H 22.807 28.329 35.511
C 20.9   26.138 40.483
H 20.765 26.493 41.537
N 21.158 22.485 36.818
C 20.61  21.525 37.536
C 20.463 20.232 36.696
H 20.996 19.518 37.268
C 21.189 20.598 35.352
H 20.448 20.524 34.531
C 21.485 22.083 35.602
C 22.481 19.71  35.017
H 23.202 19.531 35.859
H 22.349 18.714 34.578
H 23.109 20.151 34.232
C 18.979 19.637 36.702
H 18.35  20.543 36.716
H 18.703 19.045 37.585
C 18.539 18.903 35.361
H 19.422 18.378 34.942
H 17.789 18.13  35.628
C 17.838 19.744 34.301
O 17.534 20.904 34.504
O 17.493 19.068 33.175
N 22.122 25.052 35.564
C 22.208 24.215 34.473
C 22.71  24.951 33.342
C 23.022 26.246 33.891
C 22.595 26.278 35.191
C 22.977 24.445 31.944
H 22.211 24.859 31.264
H 23.935 24.813 31.642
H 22.962 23.393 31.764
C 23.691 27.351 33.226
H 24.203 28.163 33.779
C 23.749 27.573 31.917
H 23.325 26.93  31.167
H 24.172 28.415 31.519
N 21.598 26.468 38.129
C 22.015 27.491 37.344
C 21.964 28.738 38.134
C 21.793 28.339 39.477
C 21.499 26.935 39.457
C 22.246 30.123 37.635
H 23.305 30.207 37.802
H 22.05  30.214 36.56 
H 21.655 30.917 38.056
C 21.782 29.189 40.697
H 22.351 28.624 41.468
H 22.275 30.17  40.521
C 20.336 29.459 41.25 
H 20.425 30.367 41.868
H 19.763 29.777 40.379
H 19.943 28.586 41.855
N 20.742 24.05  39.307
C 20.547 24.766 40.431
C 20.097 23.989 41.501
C 20.045 22.707 40.922
C 20.432 22.855 39.616
C 19.8   24.417 42.922
H 19.528 23.503 43.463
H 20.591 24.978 43.424
H 18.88  25.035 42.928
C 19.687 21.366 41.157
O 19.231 20.872 42.176
C 19.774 20.655 39.864
H 18.788 20.302 39.533
C 20.625 19.476 40.155
O 21.857 19.421 40.08 
O 19.797 18.349 40.1  
C 20.524 17.118 40.235
H 19.908 16.271 40.344
H 21.179 16.82  39.4  
H 21.031 17.164 41.193
C 16.8   19.732 32.064
H 17.427 20.549 31.718
H 15.886 20.128 32.484
C 16.692 18.65  30.946
H 17.586 18.179 30.702
C 15.657 18.143 30.329
C 14.228 18.68  30.487
H 13.825 18.969 29.525
H 13.366 18.093 30.883
H 14.266 19.551 31.038
C 15.891 17.043 29.307
H 16.851 17.283 28.853
H 15.171 17.257 28.535
C 15.819 15.542 29.674
H 15.552 15.441 30.706
H 16.839 15.34  29.414
C 14.881 14.705 28.817
H 15.471 13.909 28.374
H 14.516 15.188 27.978
C 13.624 14.207 29.543
H 14.006 13.716 30.389
C 12.998 13.011 28.82 
H 12.004 12.886 29.245
H 12.922 13.223 27.753
H 13.546 12.11  29.019
C 12.681 15.241 30.112
H 13.204 15.839 30.857
H 11.985 14.695 30.781
C 11.882 16.088 29.07 
H 12.075 15.676 28.07 
H 12.31  17.144 29.108
C 10.452 16.042 29.346
H 10.148 15.073 29.893
H 10.042 16.001 28.307
C  9.805 17.269 30.084
H 10.092 18.098 29.424
C 10.457 17.512 31.448
H 10.07  16.869 32.232
H 11.454 17.23  31.346
H 10.524 18.551 31.736
C  8.247 17.152 30.151
H  7.919 16.566 30.977
H  7.914 16.624 29.27 
C  7.634 18.572 30.196
H  8.413 19.298 30.023
H  7.119 18.717 31.139
C  6.649 18.768 29.01 
H  5.798 19.203 29.484
H  6.29  17.794 28.642
C  7.139 19.693 27.793
H  7.519 20.675 28.133
C  5.902 19.994 26.869
H  5.53  19.017 26.506
H  5.124 20.217 27.611
H  5.887 20.885 26.212
C  8.164 18.995 26.943
H  8.326 19.487 25.993
H  9.139 19.003 27.412
H  7.867 18.003 26.676
