137

Mg 21.175 25.215 28.119
C 24.536 24.735 28.277
C 21.478 27.747 30.439
H 21.521 28.422 31.334
C 17.885 25.891 27.761
H 16.826 26.017 27.747
C 20.906 22.796 25.62 
H 20.848 22.067 24.83 
N 22.803 26.029 29.261
C 24.107 25.715 29.158
C 24.935 26.48  30.232
H 25.536 25.712 30.817
C 23.915 27.241 31.068
H 24.128 28.326 30.99 
C 22.662 27.012 30.191
C 23.966 26.75  32.478
H 24.838 27.248 32.829
H 22.982 27.139 32.897
H 24.044 25.641 32.468
C 26.034 27.413 29.587
H 25.359 28.19  29.219
H 26.538 26.91  28.807
C 27.096 28.05  30.525
H 26.787 27.839 31.553
H 28.071 27.581 30.328
C 27.309 29.543 30.416
O 28.402 30.017 30.051
O 26.189 30.263 30.627
N 19.944 26.646 28.92 
C 20.169 27.515 29.997
C 19.001 28.24  30.399
C 17.973 27.652 29.677
C 18.579 26.691 28.675
C 18.919 29.157 31.522
H 19.707 29.845 31.54 
H 17.897 29.514 31.663
H 19.143 28.447 32.321
C 16.518 28.014 29.76 
H 15.938 28.121 30.703
C 15.881 28.554 28.625
H 16.329 28.628 27.603
H 14.804 28.924 28.653
N 19.627 24.461 26.99 
C 18.397 24.862 27.002
C 17.544 24.13  26.027
C 18.445 23.082 25.575
C 19.731 23.444 26.054
C 16.009 24.304 25.799
H 15.527 24.699 26.71 
H 15.828 24.894 24.907
H 15.669 23.326 25.513
C 18.048 22.136 24.479
H 18.675 21.226 24.407
H 17.045 21.737 24.655
C 18.162 22.751 23.042
H 19.136 23.22  22.952
H 17.964 22.097 22.16 
H 17.48  23.616 23.022
N 22.382 24.127 26.99 
C 22.22  23.109 26.043
C 23.478 22.471 25.668
C 24.382 23.105 26.514
C 23.662 24.069 27.354
C 23.675 21.43  24.616
H 24.726 21.345 24.192
H 23.442 20.493 25.127
H 22.909 21.633 23.891
C 25.706 23.043 26.863
O 26.659 22.347 26.493
C 25.888 24.084 28.009
H 26.561 24.816 27.594
C 26.546 23.251 29.077
O 26.226 22.097 29.38 
O 27.501 23.959 29.785
C 28.037 23.343 30.961
H 28.512 22.504 30.475
H 28.767 23.957 31.519
H 27.253 23.018 31.658
C 26.388 31.736 30.414
H 26.622 31.814 29.358
H 27.307 32.082 30.956
C 25.119 32.511 30.783
H 24.83  32.281 31.771
C 24.381 33.406 30.079
C 24.531 33.813 28.631
H 25.388 33.458 28.144
H 23.719 33.314 28.039
H 24.603 34.942 28.645
C 23.25  33.989 30.845
H 22.908 33.247 31.657
H 22.468 34.015 30.119
C 23.542 35.403 31.516
H 24.556 35.802 31.365
H 23.5   35.205 32.561
C 22.664 36.538 31.024
H 21.946 36.192 30.336
H 23.375 37.146 30.504
C 21.897 37.407 32.14 
H 22.629 37.815 32.861
C 20.863 36.608 32.999
H 20.394 35.827 32.43 
H 21.456 36.204 33.816
H 20.149 37.309 33.467
C 21.217 38.656 31.465
H 20.637 39.042 32.296
H 20.471 38.347 30.647
C 22.114 39.759 30.838
H 21.998 39.876 29.761
H 23.158 39.571 31.157
C 21.881 41.068 31.651
H 22.7   41.188 32.425
H 20.938 41.103 32.223
C 21.855 42.208 30.678
H 22.469 41.924 29.853
C 22.397 43.482 31.302
H 23.465 43.284 31.398
H 22.113 44.364 30.807
H 22.044 43.53  32.352
C 20.442 42.506 30.115
H 19.792 42.799 30.921
H 20.005 41.593 29.818
C 20.423 43.401 28.855
H 20.077 42.773 28.047
H 21.451 43.865 28.615
C 19.684 44.77  29.07 
H 20.267 45.471 29.595
H 18.915 44.524 29.838
C 19.104 45.434 27.811
H 18.365 44.719 27.349
C 20.186 45.815 26.8  
H 20.096 46.855 26.402
H 21.195 45.487 27.059
H 20.077 45.074 25.927
C 18.178 46.597 28.323
H 18.809 47.446 28.65 
H 17.363 46.887 27.658
H 17.689 46.304 29.215
