137

Mg 25.846 30.394 34.603
C 24.97  29.728 37.773
C 22.575 31.178 33.867
H 21.595 31.411 33.457
C 26.792 31.43  31.558
H 27.044 31.743 30.564
C 29.096 29.612 35.338
H 30.128 29.456 35.634
N 24.014 30.521 35.722
C 23.891 30.168 36.993
C 22.458 30.28  37.466
H 22.16  29.276 37.787
C 21.668 30.675 36.221
H 21.327 31.682 36.396
C 22.813 30.845 35.21 
C 20.591 29.64  35.751
H 21.055 28.692 35.662
H 19.75  29.444 36.478
H 20.173 29.949 34.79 
C 22.196 31.38  38.613
H 22.565 32.349 38.208
H 22.824 31.186 39.554
C 20.782 31.665 39.044
H 20.126 30.847 38.653
H 20.8   31.722 40.124
C 20.142 32.978 38.663
O 20.722 34.037 38.37 
O 18.83  32.823 38.384
N 24.893 31.236 33.01 
C 23.523 31.456 32.866
C 23.179 31.8   31.493
C 24.4   31.985 30.874
C 25.489 31.599 31.797
C 21.749 31.981 31.002
H 21.559 33.036 31.233
H 21.628 31.848 29.983
H 21.063 31.326 31.481
C 24.732 32.394 29.473
H 25.634 32.088 28.944
C 23.872 33.088 28.673
H 23.018 33.491 29.227
H 24.026 33.308 27.595
N 27.681 30.561 33.616
C 27.84  30.971 32.374
C 29.257 30.829 31.978
C 29.997 30.39  33.068
C 28.911 30.126 34.088
C 29.713 31.056 30.62 
H 29.003 30.982 29.846
H 30.252 32.003 30.476
H 30.405 30.233 30.374
C 31.489 30.14  33.168
H 31.595 29.105 33.46 
H 31.979 30.35  32.24 
C 32.207 30.993 34.222
H 33.228 30.922 34.024
H 31.926 31.978 34.357
H 32.092 30.493 35.218
N 26.878 29.8   36.25 
C 28.185 29.573 36.435
C 28.414 29.143 37.823
C 27.149 29.185 38.424
C 26.314 29.676 37.405
C 29.709 28.647 38.364
H 30.523 29.422 38.306
H 29.584 28.388 39.413
H 30.062 27.785 37.743
C 26.377 28.81  39.547
O 26.687 28.267 40.563
C 24.908 29.209 39.203
H 24.488 29.989 39.98 
C 24.268 27.879 39.358
O 23.907 27.154 38.484
O 23.896 27.793 40.701
C 22.775 26.906 41.078
H 22.668 26.935 42.145
H 21.861 27.154 40.61 
H 22.988 25.884 40.75 
C 18.152 33.84  37.472
H 18.419 33.828 36.38 
H 18.34  34.904 37.759
C 16.683 33.583 37.604
H 16.133 34.383 38.087
C 16.027 32.547 37.125
C 16.643 31.274 36.565
H 16.463 30.465 37.256
H 16.141 30.992 35.668
H 17.699 31.435 36.489
C 14.559 32.483 37.561
H 14.348 33.333 38.182
H 14.377 31.69  38.257
C 13.53  32.4   36.418
H 12.569 32.119 36.857
H 13.824 31.674 35.654
C 13.291 33.789 35.786
H 13.831 34.621 36.353
H 12.267 34.107 35.906
C 13.815 33.824 34.287
H 14.852 33.389 34.3  
C 13.88  35.215 33.781
H 14.383 35.252 32.821
H 12.926 35.689 33.605
H 14.538 35.811 34.468
C 12.958 32.894 33.365
H 13.309 31.83  33.427
H 13.325 33.198 32.37 
C 11.434 33.071 33.28 
H 11.14  33.065 32.201
H 11.016 34.041 33.658
C 10.719 31.964 34.044
H  9.986 32.501 34.598
H 11.329 31.421 34.773
C  9.932 31.008 33.081
H  9.238 31.56  32.472
C  8.885 30.107 33.755
H  8.288 29.507 33.026
H  9.41  29.51  34.497
H  8.168 30.794 34.223
C 10.922 30.197 32.17 
H 11.416 29.464 32.719
H 11.634 30.916 31.908
C 10.277 29.475 31.02 
H  9.141 29.582 30.994
H 10.534 28.397 31.014
C 10.817 29.924 29.628
H 10.81  28.959 29.125
H 11.796 30.165 29.724
C 10.23  31.128 28.74 
H  9.23  30.931 28.576
C 10.954 31.319 27.363
H 10.492 32.113 26.811
H 12.038 31.5   27.464
H 10.944 30.413 26.761
C 10.143 32.486 29.446
H  9.448 33.131 28.817
H  9.76  32.27  30.422
H 11.12  32.998 29.484
