137

Mg 20.972 19.618 23.419
C 22.283 22.266 21.622
C 20.339 21.863 26.024
H 19.893 22.536 26.773
C 19.117 17.307 25.081
H 18.564 16.575 25.582
C 21.524 17.551 20.9  
H 21.606 16.983 20.007
N 21.219 21.82  23.735
C 21.798 22.701 22.887
C 21.677 24.172 23.385
H 22.718 24.535 23.385
C 21.142 23.997 24.864
H 20.193 24.514 24.842
C 20.948 22.465 24.939
C 22.12  24.541 25.952
H 22.1   25.636 26.088
H 21.806 24.138 26.882
H 23.118 24.171 25.755
C 20.708 24.994 22.51 
H 19.704 24.514 22.451
H 21.182 25.092 21.534
C 20.527 26.464 23.168
H 19.484 26.633 23.099
H 21.069 26.518 24.151
C 21.251 27.509 22.266
O 22.276 27.339 21.656
O 20.631 28.716 22.273
N 19.987 19.527 25.296
C 19.922 20.495 26.232
C 19.187 20.024 27.409
C 18.724 18.782 27.085
C 19.243 18.477 25.754
C 19.112 20.663 28.778
H 19.859 21.409 29.041
H 18.277 21.369 28.765
H 19.079 20.005 29.668
C 17.833 17.812 27.816
H 17.72  16.796 27.386
C 17.035 18.176 28.785
H 17.032 19.205 29.176
H 16.473 17.359 29.328
N 20.396 17.71  23.046
C 19.624 16.887 23.867
C 19.578 15.529 23.303
C 20.373 15.601 22.094
C 20.762 17.011 21.936
C 19.089 14.363 24.002
H 19.675 14.324 24.89 
H 18.095 14.49  24.361
H 19.214 13.333 23.514
C 20.646 14.451 21.163
H 21.725 14.409 21.075
H 20.282 13.621 21.615
C 20.031 14.675 19.831
H 19.556 13.809 19.577
H 19.312 15.442 19.758
H 20.736 14.869 19.03 
N 21.697 19.838 21.637
C 21.837 18.86  20.662
C 22.439 19.447 19.486
C 22.587 20.773 19.806
C 22.176 20.955 21.155
C 22.752 18.903 18.165
H 21.858 18.367 17.795
H 22.939 19.705 17.441
H 23.693 18.304 18.125
C 22.961 22.02  19.237
O 23.218 22.247 18.066
C 23.001 23.038 20.41 
H 22.468 23.902 20.072
C 24.401 23.385 20.693
O 25.386 22.701 20.592
O 24.49  24.683 21.055
C 25.789 25.248 21.2  
H 26.093 25.017 22.228
H 26.566 24.896 20.494
H 25.619 26.284 21.162
C 21.387 29.669 21.383
H 21.46  29.218 20.397
H 22.401 29.811 21.715
C 20.504 30.892 21.301
H 19.667 30.903 20.636
C 20.796 32.064 21.916
C 21.971 32.312 22.822
H 21.718 33.053 23.522
H 22.122 31.401 23.342
H 22.832 32.613 22.212
C 20.006 33.265 21.673
H 19.951 33.872 22.568
H 18.994 32.894 21.557
C 20.56  34.104 20.526
H 20.825 33.46  19.655
H 21.497 34.503 20.969
C 19.587 35.214 20.153
H 18.793 35.162 20.903
H 19.109 34.889 19.271
C 20.085 36.727 20.167
H 20.91  36.985 19.469
C 20.698 37.149 21.495
H 19.907 37.082 22.279
H 21.582 36.562 21.711
H 20.954 38.221 21.424
C 19.035 37.735 19.706
H 19.377 38.726 19.942
H 18.104 37.584 20.262
C 18.747 37.637 18.198
H 17.778 37.103 18.019
H 19.513 37.028 17.596
C 18.611 39.06  17.457
H 19.281 38.971 16.573
H 18.98  39.854 18.112
C 17.205 39.432 16.929
H 16.778 38.572 16.475
C 17.284 40.527 15.836
H 16.285 40.687 15.491
H 17.61  41.501 16.245
H 17.9   40.273 14.917
C 16.311 39.941 18.095
H 16.681 40.948 18.351
H 16.49  39.33  18.973
C 14.742 39.9   17.93 
H 14.382 39.253 18.723
H 14.546 39.315 17.061
C 14.045 41.287 17.973
H 14.757 42.043 18.402
H 13.307 41.205 18.787
C 13.317 41.639 16.653
H 14.126 41.908 15.937
C 12.438 42.837 16.934
H 13.118 43.443 17.543
H 12.257 43.491 16.124
H 11.46  42.608 17.292
C 12.376 40.494 16.071
H 12.982 39.792 15.409
H 11.871 39.94  16.878
H 11.632 41.046 15.424
