137

Mg 34.839 36.861 34.14 
C 31.591 35.919 33.741
C 35.847 33.783 32.952
H 36.139 32.784 32.583
C 38.042 37.673 34.911
H 39.114 37.967 34.979
C 33.794 39.877 35.675
H 33.548 40.79  36.195
N 33.868 35.069 33.466
C 32.49  34.918 33.311
C 32.15  33.618 32.657
H 31.52  32.985 33.225
C 33.519 32.851 32.663
H 33.757 32.654 31.657
C 34.494 33.934 33.085
C 33.503 31.6   33.538
H 33.071 31.867 34.505
H 32.742 30.944 33.088
H 34.43  31.127 33.568
C 31.43  33.691 31.269
H 32.233 33.895 30.504
H 30.635 34.452 31.308
C 30.747 32.362 30.81 
H 31.44  31.863 30.15 
H 30.514 31.636 31.577
C 29.408 32.5   30.053
O 29.237 33.099 28.998
O 28.459 32.071 30.807
N 36.635 35.849 34.031
C 36.858 34.641 33.411
C 38.272 34.312 33.478
C 38.953 35.428 33.921
C 37.844 36.412 34.302
C 38.859 32.953 32.999
H 38.257 32.469 32.246
H 39.899 33.124 32.498
H 39.205 32.42  33.855
C 40.429 35.643 34.196
H 40.692 36.708 34.167
C 41.432 34.751 34.421
H 41.183 33.674 34.547
H 42.403 35.157 34.519
N 35.786 38.542 35.061
C 37.157 38.674 35.222
C 37.407 39.969 35.895
C 36.207 40.612 36.071
C 35.232 39.682 35.648
C 38.699 40.492 36.107
H 38.889 40.719 37.174
H 39.477 39.794 35.736
H 38.84  41.353 35.457
C 36.055 42.061 36.659
H 35.263 41.983 37.355
H 36.938 42.437 37.218
C 35.614 43.168 35.636
H 35.652 44.132 36.136
H 36.141 43.301 34.675
H 34.614 43.02  35.355
N 33.082 37.725 34.507
C 32.782 38.946 35.176
C 31.404 39.024 35.411
C 30.91  37.845 34.808
C 31.979 37.16  34.3  
C 30.569 40.121 35.974
H 30.402 40.801 35.116
H 29.635 39.69  36.378
H 31.106 40.542 36.826
C 29.671 37.112 34.577
O 28.512 37.261 34.889
C 30.043 35.95  33.687
H 29.567 36.153 32.735
C 29.462 34.663 34.224
O 29.985 33.973 35.124
O 28.404 34.248 33.45 
C 27.832 32.895 33.734
H 27.603 32.744 34.78 
H 26.867 32.772 33.129
H 28.538 32.078 33.51 
C 27.142 32.043 30.242
H 27.207 31.508 29.278
H 26.784 33.06  30.175
C 26.11  31.223 31.025
H 25.482 31.892 31.557
C 25.716 29.931 30.955
C 26.624 28.977 30.17 
H 26.846 28.134 30.786
H 26.028 28.64  29.259
H 27.548 29.417 29.772
C 24.557 29.212 31.71 
H 23.806 30.029 32.014
H 24.92  28.789 32.677
C 23.783 28.228 30.826
H 24.329 27.329 30.742
H 23.774 28.625 29.809
C 22.337 28.064 31.281
H 21.729 28.837 30.814
H 22.388 28.201 32.38 
C 21.555 26.742 30.966
H 22.281 25.949 30.895
C 20.933 26.846 29.615
H 20.297 26.006 29.402
H 20.308 27.732 29.477
H 21.656 26.908 28.843
C 20.549 26.284 32.048
H 21.153 26.008 32.912
H 19.948 25.372 31.877
C 19.753 27.493 32.575
H 18.75  27.087 32.375
H 19.913 28.45  32.126
C 19.641 27.676 34.025
H 20.296 28.544 34.288
H 20.194 26.861 34.426
C 18.147 27.952 34.567
H 17.47  27.113 34.495
C 17.394 29.077 33.817
H 17.313 28.911 32.747
H 16.359 29.17  34.19 
H 17.938 30.051 33.965
C 18.145 28.301 36.084
H 17.227 28.73  36.399
H 18.829 29.098 36.358
C 18.386 27.144 37.094
H 19.147 27.388 37.808
H 18.64  26.197 36.658
C 17.105 26.88  37.953
H 16.653 26.05  37.441
H 16.361 27.68  38.007
C 17.444 26.521 39.414
H 18.113 27.258 39.846
C 18.05  25.129 39.55 
H 17.325 24.353 39.277
H 18.886 25.16  38.811
H 18.436 24.878 40.524
C 16.114 26.561 40.294
H 15.386 25.826 39.929
H 16.384 26.267 41.295
H 15.65  27.56  40.267
