137

Mg 28.962 31.165 35.864
C 29.498 27.843 36.969
C 28.095 29.952 32.714
H 27.986 29.682 31.686
C 28.728 34.328 34.795
H 28.711 35.363 34.508
C 30.202 32.202 39.   
H 30.819 32.459 39.857
N 28.988 29.118 34.961
C 29.152 27.915 35.603
C 28.95  26.752 34.616
H 29.914 26.249 34.516
C 28.566 27.432 33.226
H 27.632 27.184 32.776
C 28.478 28.923 33.659
C 29.5   27.067 32.058
H 30.446 27.436 32.167
H 29.54  26.01  31.925
H 29.218 27.43  31.003
C 27.896 25.747 34.996
H 26.864 26.119 35.157
H 28.179 25.287 35.987
C 27.611 24.559 33.953
H 26.721 25.019 33.409
H 28.341 24.378 33.196
C 27.361 23.209 34.5  
O 28.022 22.762 35.392
O 26.257 22.575 33.938
N 28.349 31.977 34.067
C 28.162 31.321 32.887
C 27.95  32.367 31.82 
C 28.012 33.627 32.462
C 28.343 33.367 33.845
C 27.77  32.107 30.377
H 26.911 31.517 30.187
H 27.642 32.984 29.798
H 28.649 31.678 30.019
C 27.812 35.04  31.986
H 28.244 35.906 32.448
C 26.893 35.283 30.979
H 26.288 34.48  30.445
H 26.637 36.307 30.663
N 29.25  32.958 36.799
C 29.2   34.164 36.143
C 29.709 35.253 37.092
C 30.012 34.615 38.256
C 29.839 33.245 38.082
C 29.532 36.806 36.909
H 28.869 37.198 37.572
H 30.488 37.228 37.   
H 29.126 36.866 35.911
C 30.452 35.275 39.552
H 31.472 35.034 39.802
H 30.293 36.343 39.425
C 29.664 34.874 40.763
H 29.272 35.755 41.246
H 28.746 34.209 40.562
H 30.306 34.329 41.432
N 29.601 30.295 37.639
C 30.179 30.833 38.798
C 30.601 29.802 39.726
C 30.213 28.638 39.065
C 29.73  28.942 37.787
C 31.288 29.883 41.023
H 31.718 28.946 41.374
H 32.049 30.699 40.901
H 30.74  30.327 41.887
C 30.2   27.16  39.238
O 30.529 26.438 40.211
C 29.594 26.636 37.886
H 28.635 26.179 38.076
C 30.595 25.58  37.429
O 31.674 25.856 36.845
O 29.996 24.316 37.532
C 30.87  23.349 36.865
H 30.906 23.633 35.869
H 31.819 23.246 37.456
H 30.502 22.33  36.78 
C 25.912 21.249 34.469
H 26.083 21.221 35.538
H 26.489 20.465 33.985
C 24.502 20.953 34.001
H 24.279 20.933 32.896
C 23.324 20.696 34.606
C 23.231 20.227 36.088
H 24.233 20.092 36.473
H 22.636 20.904 36.69 
H 22.693 19.221 36.109
C 21.988 20.668 33.858
H 22.103 21.277 32.944
H 21.426 21.316 34.458
C 21.335 19.304 33.629
H 20.255 19.46  33.519
H 21.444 18.64  34.511
C 21.988 18.633 32.337
H 22.98  19.019 32.308
H 21.514 19.055 31.471
C 22.049 17.108 32.403
H 22.456 16.817 33.361
C 23.154 16.6   31.414
H 23.403 15.607 31.801
H 22.81  16.424 30.427
H 24.125 17.068 31.547
C 20.612 16.489 32.213
H 20.038 17.094 32.893
H 20.573 15.454 32.413
C 19.954 16.679 30.799
H 19.586 15.692 30.477
H 20.613 16.934 29.981
C 18.792 17.703 30.799
H 18.923 18.331 29.93 
H 18.795 18.449 31.592
C 17.381 17.04  30.733
H 17.32  16.357 29.899
C 16.408 18.263 30.571
H 16.487 18.859 31.497
H 16.891 18.873 29.76 
H 15.415 17.954 30.388
C 16.95  16.169 31.986
H 17.016 16.89  32.856
H 17.791 15.404 32.062
C 15.589 15.433 31.904
H 14.965 15.864 31.156
H 15.095 15.578 32.866
C 15.761 13.982 31.632
H 16.738 13.751 31.142
H 14.999 13.776 30.86 
C 15.534 13.017 32.85 
H 14.46  13.094 33.001
C 16.525 13.373 34.034
H 17.474 13.661 33.595
H 16.196 14.127 34.756
H 16.589 12.513 34.647
C 15.903 11.636 32.264
H 15.595 11.47  31.198
H 16.933 11.425 32.143
H 15.424 10.81  32.83 
