137

Mg 36.721 34.218 35.183
C 33.922 32.534 33.839
C 38.388 33.463 32.3  
H 38.939 33.204 31.42 
C 39.382 35.588 36.537
H 40.23  36.087 36.962
C 34.918 34.656 38.164
H 34.454 34.651 39.198
N 36.218 33.116 33.305
C 34.989 32.59  32.912
C 35.069 31.915 31.562
H 34.883 30.818 31.685
C 36.543 32.082 31.193
H 36.477 32.679 30.254
C 37.075 32.93  32.354
C 37.387 30.803 30.963
H 38.434 31.173 30.74 
H 37.439 30.226 31.905
H 36.987 30.193 30.287
C 34.046 32.446 30.515
H 34.197 33.519 30.5  
H 33.008 32.305 30.818
C 34.051 31.91  29.066
H 34.3   32.696 28.336
H 34.858 31.171 28.899
C 32.774 31.206 28.554
O 32.65  30.034 28.245
O 31.859 32.126 28.167
N 38.596 34.624 34.529
C 39.168 34.213 33.289
C 40.564 34.516 33.237
C 40.808 35.239 34.428
C 39.571 35.189 35.223
C 41.394 34.19  32.059
H 42.444 33.889 32.209
H 40.952 33.616 31.246
H 41.379 35.196 31.617
C 42.026 35.877 34.837
H 42.05  36.222 35.775
C 43.185 36.037 34.118
H 43.244 35.804 33.097
H 44.06  36.584 34.483
N 37.119 35.007 36.994
C 38.353 35.488 37.392
C 38.324 35.827 38.805
C 37.028 35.541 39.242
C 36.272 35.064 38.135
C 39.389 36.513 39.527
H 39.6   37.392 38.947
H 39.155 36.919 40.485
H 40.242 35.849 39.598
C 36.566 35.825 40.611
H 35.938 35.066 40.906
H 37.379 35.865 41.395
C 35.659 37.034 40.86 
H 36.159 37.95  40.389
H 34.68  36.821 40.312
H 35.593 37.292 41.894
N 34.817 33.777 35.894
C 34.225 33.997 37.11 
C 32.831 33.452 37.079
C 32.755 32.794 35.892
C 33.941 33.075 35.235
C 31.799 33.307 38.257
H 32.381 32.836 39.043
H 31.44  34.295 38.491
H 30.923 32.631 37.988
C 31.86  31.982 35.085
O 30.814 31.404 35.339
C 32.526 31.873 33.707
H 31.926 32.495 33.078
C 32.597 30.433 33.325
O 32.983 29.515 34.011
O 32.251 30.29  32.009
C 32.411 28.99  31.418
H 33.497 28.824 31.241
H 32.048 28.115 31.95 
H 31.998 28.939 30.433
C 30.64  31.598 27.594
H 30.08  31.033 28.326
H 31.025 31.039 26.744
C 29.772 32.718 27.082
H 29.997 32.804 26.004
C 28.791 33.44  27.641
C 28.403 33.294 29.11 
H 28.099 34.279 29.539
H 27.57  32.512 29.11 
H 29.312 32.947 29.672
C 28.093 34.427 26.711
H 28.785 34.651 25.833
H 28.008 35.376 27.231
C 26.842 33.765 26.186
H 26.856 32.6   26.288
H 26.881 33.861 25.119
C 25.514 34.371 26.654
H 25.412 35.297 26.035
H 25.676 34.675 27.66 
C 24.291 33.39  26.66 
H 24.545 32.385 26.963
C 23.746 33.296 25.177
H 23.506 34.33  24.855
H 24.444 32.758 24.457
H 22.83  32.694 25.172
C 23.211 33.903 27.629
H 22.812 34.806 27.27 
H 23.813 34.128 28.522
C 22.121 32.851 28.09 
H 22.372 32.647 29.123
H 22.165 32.011 27.508
C 20.675 33.409 28.145
H 20.063 32.946 27.309
H 20.696 34.478 28.027
C 19.927 33.173 29.523
H 20.611 33.505 30.29 
C 19.737 31.664 29.751
H 19.541 31.482 30.807
H 18.92  31.475 29.108
H 20.629 31.066 29.423
C 18.581 34.01  29.733
H 17.826 33.625 29.094
H 18.893 35.023 29.486
C 18.059 33.952 31.216
H 17.548 34.913 31.433
H 18.911 33.63  31.919
C 16.953 32.821 31.39 
H 17.302 32.026 32.025
H 16.879 32.339 30.408
C 15.612 33.375 31.797
H 15.395 34.251 31.098
C 15.466 33.96  33.274
H 14.412 34.236 33.443
H 15.764 33.238 33.99 
H 15.995 34.944 33.233
C 14.505 32.334 31.516
H 13.465 32.728 31.829
H 14.472 31.941 30.462
H 14.714 31.423 32.049
