137

Mg 29.93  29.026 32.536
C 27.782 26.528 31.452
C 31.36  28.916 29.481
H 31.831 29.086 28.51 
C 32.176 31.346 33.568
H 32.959 32.031 33.935
C 28.632 28.87  35.672
H 28.134 28.954 36.572
N 29.64  27.777 30.667
C 28.685 26.848 30.444
C 28.793 26.302 28.978
H 29.111 25.255 29.155
C 29.908 27.116 28.347
H 29.501 27.699 27.518
C 30.339 28.007 29.523
C 31.138 26.278 27.855
H 31.397 25.641 28.668
H 30.731 25.778 26.923
H 31.957 26.891 27.579
C 27.388 26.477 28.339
H 27.201 27.508 28.036
H 26.586 26.08  28.938
C 27.159 25.837 26.98 
H 27.422 26.631 26.252
H 27.864 25.007 26.789
C 25.736 25.427 26.535
O 25.159 25.856 25.553
O 25.159 24.568 27.414
N 31.523 29.967 31.733
C 31.938 29.803 30.436
C 33.1   30.661 30.139
C 33.326 31.313 31.34 
C 32.342 30.886 32.28 
C 33.824 30.737 28.893
H 34.487 31.549 29.021
H 34.423 29.823 28.783
H 33.278 30.887 27.996
C 34.356 32.284 31.714
H 34.069 33.214 32.215
C 35.661 32.123 31.443
H 36.028 31.174 31.121
H 36.441 32.895 31.778
N 30.268 30.043 34.322
C 31.268 30.967 34.562
C 31.227 31.444 35.922
C 30.173 30.725 36.524
C 29.679 29.774 35.548
C 32.11  32.63  36.431
H 31.688 33.011 37.336
H 33.086 32.291 36.581
H 31.954 33.427 35.713
C 29.7   30.806 37.967
H 29.366 29.811 38.302
H 30.545 31.024 38.602
C 28.552 31.816 38.162
H 28.166 31.905 39.194
H 28.866 32.748 37.784
H 27.719 31.434 37.56 
N 28.478 28.006 33.378
C 27.994 28.066 34.716
C 26.861 27.216 34.845
C 26.725 26.572 33.609
C 27.781 27.085 32.732
C 25.931 27.046 36.006
H 25.186 27.794 35.95 
H 25.424 26.086 36.048
H 26.553 27.125 36.932
C 25.929 25.639 32.889
O 24.963 24.893 33.158
C 26.514 25.652 31.469
H 25.723 25.898 30.788
C 27.006 24.257 31.107
O 27.968 23.648 31.605
O 26.248 23.761 30.091
C 26.492 22.422 29.576
H 26.038 22.203 28.655
H 27.536 22.203 29.54 
H 26.156 21.738 30.378
C 23.84  24.187 26.998
H 23.973 23.458 26.154
H 23.182 25.006 26.633
C 23.153 23.607 28.238
H 23.093 24.343 29.09 
C 22.702 22.372 28.426
C 22.937 21.232 27.486
H 21.948 21.203 27.046
H 23.722 21.303 26.748
H 23.014 20.262 27.906
C 22.06  22.101 29.787
H 21.882 23.    30.284
H 22.844 21.65  30.41 
C 20.82  21.261 29.901
H 20.627 21.079 30.994
H 20.881 20.317 29.412
C 19.605 22.004 29.288
H 20.039 22.963 28.995
H 18.801 22.158 30.004
C 18.986 21.357 28.005
H 19.825 21.099 27.398
C 18.143 22.395 27.222
H 17.655 23.075 27.935
H 18.792 22.984 26.58 
H 17.414 21.887 26.594
C 18.116 20.096 28.246
H 18.825 19.504 28.714
H 17.832 19.648 27.274
C 16.831 20.139 29.144
H 16.107 19.531 28.719
H 16.39  21.109 29.122
C 17.125 19.675 30.608
H 18.229 19.82  30.831
H 16.82  18.679 30.86 
C 16.539 20.576 31.742
H 16.794 21.581 31.47 
C 17.189 20.291 33.061
H 16.739 20.921 33.814
H 17.04  19.207 33.371
H 18.2   20.651 33.061
C 15.005 20.447 31.774
H 14.809 19.492 32.235
H 14.554 20.337 30.849
C 14.327 21.536 32.506
H 13.658 22.048 31.735
H 15.119 22.217 32.887
C 13.485 21.102 33.67 
H 13.869 21.732 34.507
H 13.671 20.068 33.961
C 11.916 21.238 33.406
H 11.63  22.205 33.065
C 11.289 21.079 34.886
H 11.489 20.096 35.232
H 11.72  21.735 35.681
H 10.195 21.339 34.747
C 11.342 20.209 32.487
H 11.907 19.301 32.695
H 10.372 20.237 32.858
H 11.348 20.532 31.404
