137

Mg 20.933 26.872 29.36 
C 24.225 25.794 29.07 
C 21.994 29.351 31.621
H 22.396 30.087 32.309
C 17.834 28.136 29.551
H 16.854 28.478 29.647
C 19.923 24.353 27.325
H 19.794 23.52  26.569
N 22.839 27.62  30.045
C 24.078 27.012 29.76 
C 25.203 27.767 30.567
H 25.795 27.044 31.047
C 24.449 28.73  31.504
H 24.712 29.738 31.187
C 23.055 28.628 31.032
C 24.674 28.425 32.954
H 25.78  28.369 33.068
H 24.202 29.11  33.581
H 24.268 27.461 33.26 
C 26.282 28.49  29.663
H 25.703 29.115 29.005
H 26.874 27.836 29.058
C 27.319 29.368 30.45 
H 27.116 29.373 31.543
H 28.338 29.004 30.315
C 27.396 30.833 30.073
O 28.248 31.327 29.361
O 26.341 31.574 30.671
N 20.145 28.552 30.391
C 20.71  29.446 31.248
C 19.794 30.42  31.721
C 18.55  30.094 31.072
C 18.779 28.9   30.267
C 20.066 31.657 32.502
H 19.799 31.447 33.583
H 21.07  32.009 32.54 
H 19.485 32.411 32.143
C 17.22  30.693 31.28 
H 17.031 31.227 32.253
C 16.18  30.776 30.425
H 16.095 30.349 29.397
H 15.277 31.354 30.653
N 19.217 26.403 28.509
C 17.97  27.02  28.723
C 16.969 26.349 27.882
C 17.607 25.33  27.282
C 18.977 25.299 27.745
C 15.498 26.749 27.823
H 14.881 26.054 28.298
H 15.273 27.766 28.128
H 15.292 26.692 26.802
C 17.084 24.262 26.383
H 17.551 24.381 25.392
H 17.512 23.313 26.836
C 15.611 23.972 26.167
H 15.086 24.861 25.847
H 15.569 23.217 25.384
H 15.169 23.616 27.074
N 21.818 25.34  28.401
C 21.271 24.333 27.723
C 22.338 23.451 27.248
C 23.486 24.014 27.82 
C 23.141 25.169 28.435
C 22.191 22.256 26.334
H 22.668 21.313 26.692
H 21.081 21.986 26.208
H 22.614 22.549 25.376
C 24.946 23.811 27.955
O 25.711 22.976 27.548
C 25.412 25.006 28.753
H 25.893 25.836 28.276
C 26.096 24.429 29.955
O 25.615 23.777 30.858
O 27.422 24.877 29.955
C 28.131 24.447 31.143
H 27.931 25.006 31.998
H 28.049 23.379 31.393
H 29.264 24.654 31.016
C 26.444 33.033 30.533
H 26.806 33.268 29.525
H 27.281 33.232 31.159
C 25.117 33.611 30.944
H 24.703 33.071 31.738
C 24.439 34.724 30.512
C 24.98  35.654 29.389
H 24.19  36.267 29.062
H 25.721 36.277 29.785
H 25.201 35.147 28.501
C 23.223 35.241 31.23 
H 23.099 34.747 32.179
H 22.336 34.928 30.659
C 23.238 36.733 31.716
H 24.303 37.083 31.542
H 23.324 36.861 32.789
C 22.159 37.673 31.078
H 21.488 37.144 30.401
H 22.741 38.228 30.359
C 21.435 38.602 32.075
H 22.236 38.993 32.742
C 20.457 37.844 33.03 
H 20.038 38.613 33.707
H 19.622 37.254 32.619
H 20.963 37.258 33.689
C 20.794 39.898 31.356
H 20.151 40.373 32.165
H 20.175 39.771 30.51 
C 21.867 40.914 30.89 
H 21.896 41.125 29.792
H 22.926 40.525 31.037
C 21.916 42.236 31.751
H 22.936 42.428 32.12 
H 21.365 42.26  32.702
C 21.619 43.475 30.94 
H 22.365 43.61  30.093
C 21.555 44.723 31.904
H 20.558 44.863 32.38 
H 22.262 44.538 32.756
H 21.811 45.675 31.411
C 20.144 43.377 30.411
H 19.405 43.102 31.171
H 20.171 42.67  29.572
C 19.67  44.678 29.699
H 20.594 45.179 29.403
H 19.182 45.435 30.383
C 18.809 44.296 28.437
H 18.044 43.462 28.548
H 19.469 44.015 27.636
C 18.137 45.555 27.841
H 17.433 45.869 28.581
C 17.53  45.24  26.467
H 17.059 46.068 25.991
H 18.237 44.759 25.761
H 16.845 44.492 26.734
C 19.097 46.753 27.614
H 19.872 46.493 26.955
H 18.567 47.64  27.268
H 19.565 47.124 28.547
