137

Mg 21.926 17.786 26.005
C 24.397 17.522 23.594
C 23.801 20.054 27.651
H 24.42  20.831 28.133
C 19.391 18.2   28.067
H 18.583 18.278 28.784
C 20.186 15.29  24.246
H 19.842 14.306 23.869
N 23.834 18.674 25.596
C 24.631 18.512 24.493
C 25.743 19.595 24.439
H 26.619 19.006 24.128
C 25.743 20.161 25.828
H 25.686 21.21  25.601
C 24.428 19.621 26.422
C 26.948 19.8   26.653
H 27.159 18.707 26.522
H 27.7   20.417 26.243
H 26.719 20.062 27.624
C 25.489 20.664 23.324
H 24.592 21.247 23.515
H 25.119 20.245 22.373
C 26.647 21.671 22.968
H 27.516 21.351 23.461
H 26.87  21.533 21.903
C 26.485 23.135 23.316
O 27.051 23.678 24.289
O 25.622 23.749 22.456
N 21.653 18.892 27.647
C 22.558 19.776 28.214
C 21.949 20.273 29.478
C 20.686 19.634 29.57 
C 20.557 18.828 28.409
C 22.693 21.193 30.475
H 23.197 21.98  29.97 
H 22.107 21.705 31.207
H 23.392 20.493 30.94 
C 19.778 19.675 30.65 
H 19.215 18.738 30.856
C 19.294 20.75  31.339
H 19.701 21.709 31.19 
H 18.468 20.678 32.133
N 20.079 16.914 26.094
C 19.194 17.204 27.107
C 17.947 16.447 26.865
C 18.167 15.635 25.709
C 19.493 16.033 25.233
C 16.685 16.464 27.705
H 15.875 16.385 27.011
H 16.667 15.594 28.315
H 16.664 17.385 28.365
C 17.274 14.612 25.033
H 17.847 13.669 24.859
H 16.392 14.47  25.666
C 16.513 15.214 23.876
H 17.234 15.609 23.079
H 15.849 14.515 23.385
H 15.931 15.99  24.24 
N 22.125 16.674 24.215
C 21.371 15.681 23.632
C 22.087 15.157 22.465
C 23.241 15.87  22.403
C 23.212 16.766 23.491
C 21.537 14.065 21.567
H 20.78  14.443 20.932
H 22.291 13.855 20.792
H 21.282 13.154 22.089
C 24.474 16.059 21.662
O 24.865 15.504 20.64 
C 25.353 17.07  22.439
H 25.65  17.864 21.735
C 26.532 16.376 22.938
O 26.553 15.422 23.637
O 27.75  17.022 22.674
C 28.844 16.654 23.53 
H 29.52  15.903 23.125
H 29.506 17.487 23.669
H 28.573 16.304 24.582
C 25.4   25.121 22.812
H 25.209 25.505 21.79 
H 26.227 25.58  23.312
C 24.15  25.34  23.672
H 23.255 25.075 23.096
C 23.942 25.815 24.909
C 25.115 26.156 25.822
H 25.806 25.332 26.149
H 25.626 27.021 25.294
H 24.74  26.59  26.717
C 22.532 25.877 25.545
H 22.609 25.251 26.405
H 21.829 25.333 24.852
C 22.071 27.256 26.045
H 22.731 28.058 25.858
H 22.065 27.125 27.096
C 20.589 27.693 25.594
H 19.95  27.278 26.429
H 20.415 27.183 24.674
C 20.303 29.208 25.569
H 21.178 29.699 25.073
C 20.132 29.844 26.932
H 20.122 30.971 26.908
H 19.15  29.589 27.325
H 20.876 29.467 27.664
C 19.072 29.503 24.701
H 18.771 30.534 24.957
H 18.208 29.054 25.078
C 19.275 29.354 23.105
H 18.461 28.772 22.62 
H 20.253 28.889 23.023
C 19.329 30.712 22.451
H 20.188 30.679 21.799
H 19.492 31.498 23.185
C 18.083 31.164 21.723
H 17.686 30.287 21.185
C 18.433 32.137 20.608
H 17.579 32.426 19.974
H 18.755 32.945 21.19 
H 19.201 31.726 19.925
C 16.978 31.674 22.75 
H 17.344 32.3   23.545
H 16.564 30.748 23.24 
C 15.592 32.258 22.309
H 14.862 31.417 22.189
H 15.772 32.526 21.286
C 14.994 33.438 23.084
H 14.958 34.276 22.432
H 15.62  33.749 23.913
C 13.612 33.222 23.698
H 12.98  32.85  22.873
C 12.983 34.574 24.183
H 13.267 35.307 23.438
H 11.916 34.439 24.3  
H 13.488 34.908 25.125
C 13.635 32.169 24.765
H 12.586 31.964 24.966
H 13.973 31.162 24.487
H 14.183 32.605 25.591
