137

Mg 28.545 30.397 35.456
C 27.616 29.605 38.712
C 25.243 29.944 34.461
H 24.169 29.892 34.136
C 29.288 31.616 32.401
H 29.519 32.026 31.429
C 31.593 31.282 36.707
H 32.558 31.635 37.11 
N 26.668 29.814 36.421
C 26.56  29.505 37.762
C 25.153 29.221 38.168
H 25.111 28.304 38.728
C 24.415 29.085 36.804
H 23.558 29.702 36.563
C 25.508 29.621 35.849
C 24.197 27.596 36.404
H 23.316 27.309 37.023
H 24.073 27.507 35.37 
H 25.067 26.958 36.573
C 24.459 30.125 39.184
H 24.31  31.084 38.798
H 25.297 30.431 39.941
C 23.1   29.601 39.733
H 22.989 28.557 39.453
H 23.021 29.658 40.807
C 21.878 30.378 39.344
O 21.315 31.205 40.035
O 21.574 30.057 38.034
N 27.458 30.742 33.714
C 26.107 30.47  33.525
C 25.759 30.826 32.164
C 26.939 31.337 31.567
C 28.006 31.236 32.567
C 24.317 30.778 31.675
H 24.259 30.867 30.583
H 23.814 29.881 31.95 
H 23.729 31.57  32.108
C 27.143 31.886 30.165
H 27.826 32.742 30.071
C 26.615 31.304 29.062
H 25.998 30.342 29.122
H 26.867 31.677 28.045
N 30.195 31.267 34.72 
C 30.295 31.681 33.39 
C 31.69  32.27  33.179
C 32.369 32.038 34.423
C 31.41  31.445 35.35 
C 32.09  33.096 31.947
H 31.607 32.792 31.091
H 31.785 34.157 31.975
H 33.167 33.145 31.872
C 33.7   32.563 34.777
H 34.249 31.966 35.578
H 34.434 32.385 33.941
C 33.673 34.095 34.934
H 33.422 34.581 33.924
H 32.814 34.396 35.627
H 34.52  34.525 35.332
N 29.514 30.325 37.263
C 30.816 30.644 37.601
C 31.088 30.285 39.007
C 29.852 29.917 39.466
C 28.94  29.987 38.396
C 32.27  30.46  39.867
H 31.963 30.783 40.876
H 32.678 29.444 39.877
H 32.966 31.148 39.309
C 29.131 29.563 40.672
O 29.471 29.48  41.858
C 27.691 29.315 40.207
H 27.151 30.015 40.83 
C 27.444 27.87  40.461
O 28.26  27.032 40.155
O 26.243 27.81  41.076
C 25.884 26.512 41.699
H 24.86  26.454 41.418
H 26.506 25.656 41.318
H 26.034 26.57  42.678
C 20.516 30.834 37.403
H 20.565 31.954 37.601
H 19.526 30.523 37.712
C 20.689 30.711 35.908
H 21.263 29.845 35.634
C 20.585 31.729 35.048
C 20.256 33.199 35.248
H 19.98  33.694 34.289
H 19.446 33.248 35.991
H 21.121 33.678 35.706
C 20.971 31.395 33.651
H 21.683 30.583 33.66 
H 21.623 32.294 33.312
C 19.851 30.953 32.776
H 19.122 31.752 32.763
H 19.389 30.064 33.286
C 20.287 30.755 31.307
H 21.358 30.833 31.386
H 19.989 31.57  30.688
C 19.776 29.476 30.553
H 20.24  28.578 31.02 
C 20.37  29.479 29.113
H 21.448 29.392 29.248
H 20.077 28.536 28.662
H 19.993 30.378 28.64 
C 18.313 29.149 30.581
H 17.989 28.894 31.63 
H 18.156 28.242 29.999
C 17.403 30.363 30.041
H 18.019 31.193 29.662
H 16.774 30.745 30.86 
C 16.39  29.931 28.938
H 15.515 29.655 29.571
H 16.875 29.059 28.487
C 15.929 30.973 27.867
H 16.778 31.329 27.33 
C 15.189 32.205 28.474
H 14.215 31.887 28.888
H 15.78  32.74  29.184
H 15.011 32.943 27.688
C 14.832 30.255 26.993
H 13.98  29.972 27.664
H 15.167 29.314 26.592
C 14.093 31.    25.815
H 14.097 30.275 24.928
H 14.598 31.916 25.598
C 12.627 31.246 26.119
H 12.347 31.029 27.177
H 12.114 30.489 25.464
C 12.143 32.71  25.841
H 12.961 33.373 26.139
C 10.97  33.122 26.707
H 11.131 32.872 27.732
H 10.741 34.231 26.654
H 10.148 32.568 26.322
C 11.946 32.838 24.291
H 11.862 33.898 24.016
H 12.851 32.45  23.84 
H 11.031 32.331 24.077
