137

Mg 20.717 18.669 32.74 
C 23.878 17.898 31.532
C 21.977 21.822 33.415
H 22.364 22.755 33.723
C 17.59  19.608 33.68 
H 16.539 19.769 34.035
C 19.745 15.493 31.941
H 19.444 14.487 31.675
N 22.687 19.673 32.553
C 23.79  19.198 31.996
C 24.973 20.289 31.945
H 25.857 20.048 32.454
C 24.368 21.354 32.859
H 24.349 22.256 32.269
C 22.936 20.964 32.936
C 25.08  21.549 34.213
H 25.988 22.121 34.11 
H 24.453 22.127 34.858
H 25.159 20.589 34.754
C 25.389 20.789 30.511
H 24.486 21.064 30.02 
H 25.822 20.002 29.999
C 26.444 21.91  30.408
H 26.883 22.143 31.347
H 27.28  21.543 29.81 
C 26.057 23.202 29.777
O 26.695 23.888 28.98 
O 24.819 23.579 30.239
N 19.876 20.368 33.45 
C 20.568 21.551 33.598
C 19.648 22.589 34.061
C 18.384 22.041 34.202
C 18.569 20.624 33.768
C 20.008 23.977 34.296
H 20.772 24.149 35.063
H 20.337 24.342 33.356
H 19.159 24.541 34.585
C 17.06  22.644 34.604
H 16.25  22.108 34.229
C 16.897 23.653 35.438
H 17.659 24.094 36.085
H 15.92  23.896 35.813
N 18.954 17.694 32.873
C 17.788 18.246 33.37 
C 16.788 17.154 33.543
C 17.439 16.005 32.95 
C 18.806 16.36  32.605
C 15.393 17.292 34.197
H 15.608 17.366 35.251
H 14.914 18.199 33.866
H 14.664 16.463 34.073
C 16.867 14.61  32.87 
H 17.568 13.849 33.138
H 16.028 14.425 33.559
C 16.337 14.299 31.497
H 17.064 14.033 30.754
H 15.719 13.437 31.664
H 15.736 15.132 31.172
N 21.571 17.036 31.912
C 21.054 15.829 31.558
C 22.046 14.939 31.043
C 23.196 15.769 30.958
C 22.821 17.008 31.503
C 21.932 13.574 30.631
H 22.219 13.416 29.608
H 22.622 12.985 31.195
H 20.99 13.14 30.75
C 24.58  15.864 30.462
O 25.247 15.077 29.782
C 25.103 17.222 30.916
H 25.343 17.614 29.949
C 26.273 17.032 31.785
O 26.387 16.283 32.724
O 27.202 17.939 31.469
C 28.479 17.859 32.262
H 28.831 16.842 32.121
H 29.258 18.462 31.743
H 28.341 18.142 33.356
C 24.255 24.73  29.573
H 24.164 24.531 28.502
H 24.889 25.598 29.725
C 22.824 24.92  30.126
H 22.826 24.894 31.165
C 21.683 25.21  29.495
C 21.455 25.007 28.017
H 20.534 24.529 27.982
H 21.402 25.875 27.406
H 22.253 24.4   27.623
C 20.555 25.616 30.335
H 20.824 25.503 31.413
H 19.638 25.001 30.135
C 20.226 27.084 30.104
H 20.946 27.502 29.377
H 20.547 27.53  31.099
C 18.724 27.38  29.869
H 18.176 26.487 29.531
H 18.842 28.081 29.091
C 17.869 28.074 30.944
H 18.55  28.896 31.296
C 17.41  27.242 32.184
H 16.707 26.422 31.89 
H 18.259 26.946 32.804
H 16.899 27.85  32.854
C 16.49  28.541 30.308
H 15.761 28.698 31.152
H 16.056 27.685 29.85 
C 16.663 29.69  29.229
H 16.445 29.345 28.244
H 17.736 29.987 29.225
C 15.74  30.914 29.475
H 14.913 30.603 30.09 
H 15.379 31.273 28.483
C 16.413 32.239 30.128
H 17.286 32.362 29.505
C 16.982 31.911 31.536
H 17.372 32.88  31.912
H 16.27  31.441 32.197
H 17.82  31.25  31.496
C 15.402 33.419 30.059
H 14.606 33.083 30.753
H 15.138 33.471 29.035
C 16.094 34.809 30.427
H 16.873 35.107 29.767
H 16.471 34.788 31.48 
C 14.989 35.914 30.402
H 14.908 36.379 31.38 
H 14.052 35.426 30.069
C 15.24  37.051 29.504
H 16.311 37.327 29.549
C 14.413 38.29  29.945
H 14.645 39.021 29.25 
H 13.345 37.934 29.942
H 14.82  38.687 30.932
C 15.076 36.649 28.003
H 14.029 36.658 27.726
H 15.524 37.43  27.362
H 15.486 35.701 27.682
