137

Mg 29.571 29.435 37.421
C 26.641 28.7   38.969
C 28.483 27.978 34.605
H 28.121 27.593 33.63 
C 32.103 30.911 35.739
H 32.84  31.483 35.13 
C 30.788 30.669 40.44 
H 31.091 30.965 41.443
N 27.786 28.577 36.856
C 26.676 28.316 37.682
C 25.612 27.523 36.965
H 25.523 26.663 37.579
C 26.286 27.129 35.632
H 25.644 27.451 34.814
C 27.595 27.876 35.693
C 26.553 25.616 35.62 
H 25.699 25.106 36.038
H 26.903 25.256 34.603
H 27.372 25.444 36.324
C 24.242 28.247 36.813
H 24.325 29.08  36.055
H 24.002 28.797 37.722
C 23.068 27.342 36.489
H 23.505 26.512 35.981
H 22.643 26.989 37.44 
C 21.909 27.799 35.644
O 20.796 27.875 36.102
O 22.254 28.112 34.327
N 30.209 29.371 35.455
C 29.658 28.671 34.455
C 30.319 28.979 33.209
C 31.31  29.941 33.481
C 31.202 30.156 35.012
C 30.181 28.168 31.901
H 29.943 27.081 31.998
H 29.556 28.762 31.318
H 31.098 28.242 31.373
C 32.263 30.546 32.55 
H 32.679 29.852 31.796
C 32.578 31.869 32.593
H 32.235 32.57  33.375
H 33.154 32.318 31.838
N 31.173 30.626 37.995
C 32.069 31.175 37.065
C 33.073 31.904 37.86 
C 32.722 31.721 39.219
C 31.56  30.905 39.227
C 34.167 32.566 37.25 
H 34.925 31.939 36.858
H 33.817 33.087 36.372
H 34.585 33.328 37.936
C 33.477 32.243 40.414
H 33.576 31.387 41.113
H 34.485 32.541 40.196
C 32.843 33.462 41.263
H 31.831 33.139 41.543
H 33.411 33.652 42.179
H 32.601 34.332 40.697
N 28.905 29.65  39.228
C 29.515 30.117 40.379
C 28.606 30.084 41.471
C 27.451 29.515 40.95 
C 27.732 29.231 39.617
C 28.779 30.545 42.938
H 28.076 30.043 43.637
H 29.781 30.602 43.39 
H 28.416 31.586 42.93 
C 26.079 29.083 41.249
O 25.4   29.283 42.291
C 25.519 28.514 39.982
H 24.595 29.05  39.68 
C 25.239 27.096 40.309
O 26.06  26.276 40.716
O 23.926 26.791 40.131
C 23.424 25.526 40.692
H 22.331 25.548 40.791
H 23.823 24.617 40.292
H 23.901 25.479 41.683
C 21.212 28.475 33.423
H 20.673 29.297 33.868
H 20.604 27.571 33.367
C 21.702 28.942 31.982
H 22.568 29.59  32.143
C 21.353 28.586 30.725
C 20.14  27.76  30.378
H 20.404 26.86  29.845
H 19.589 27.669 31.348
H 19.547 28.279 29.669
C 22.072 29.235 29.592
H 22.701 30.088 29.998
H 21.297 29.832 29.081
C 22.86  28.387 28.575
H 22.909 27.368 28.952
H 23.87  28.826 28.622
C 22.397 28.612 27.154
H 23.051 29.282 26.712
H 21.428 29.106 27.117
C 22.348 27.428 26.155
H 23.285 26.858 26.245
C 22.391 28.011 24.791
H 22.142 27.175 24.081
H 21.663 28.833 24.735
H 23.341 28.39  24.529
C 21.159 26.52  26.35 
H 21.092 26.123 27.372
H 21.396 25.633 25.677
C 19.788 27.132 26.082
H 19.873 27.715 25.109
H 19.424 27.76  26.868
C 18.67  26.024 25.975
H 19.045 25.028 25.892
H 18.157 26.201 25.023
C 17.687 26.089 27.128
H 17.47  27.141 27.31 
C 18.37  25.41  28.347
H 18.584 24.382 28.07 
H 19.325 25.844 28.55 
H 17.732 25.437 29.175
C 16.372 25.419 26.714
H 16.598 24.445 26.252
H 15.844 26.042 25.899
C 15.264 25.279 27.77 
H 14.479 25.991 27.458
H 15.575 25.694 28.738
C 14.796 23.78  27.915
H 15.536 23.006 27.853
H 14.03  23.576 27.101
C 14.204 23.484 29.276
H 14.776 24.038 30.003
C 14.233 22.067 29.75 
H 15.142 21.557 29.382
H 14.27  22.155 30.832
H 13.382 21.619 29.423
C 12.905 24.208 29.481
H 13.013 25.27  29.299
H 12.152 23.859 28.809
H 12.627 24.188 30.553
