137

Mg 19.347 25.135 27.858
C 22.538 25.288 29.255
C 18.502 28.083 29.513
H 18.134 29.057 29.905
C 16.342 25.072 26.444
H 15.355 25.055 25.971
C 20.245 22.196 26.35 
H 20.514 21.257 25.819
N 20.347 26.466 29.309
C 21.662 26.285 29.737
C 22.095 27.501 30.445
H 22.457 27.339 31.451
C 20.79  28.237 30.675
H 20.797 29.27  30.378
C 19.779 27.54  29.789
C 20.351 28.349 32.147
H 19.422 28.875 32.21 
H 20.171 27.425 32.665
H 21.17  28.684 32.763
C 23.164 28.326 29.719
H 22.717 28.699 28.804
H 23.875 27.555 29.417
C 23.829 29.34  30.616
H 23.214 29.637 31.491
H 24.653 28.823 31.011
C 24.364 30.679 30.011
O 24.645 30.916 28.848
O 24.443 31.666 30.934
N 17.717 26.405 27.951
C 17.549 27.553 28.663
C 16.364 28.242 28.233
C 15.681 27.334 27.295
C 16.614 26.137 27.244
C 15.847 29.559 28.685
H 16.733 30.205 28.559
H 15.037 29.943 28.06 
H 15.458 29.545 29.694
C 14.414 27.561 26.609
H 13.585 27.676 27.308
C 14.243 27.567 25.283
H 15.095 27.448 24.572
H 13.226 27.714 24.845
N 18.42  23.82  26.713
C 17.149 23.988 26.161
C 16.81  22.799 25.379
C 17.912 22.02  25.292
C 18.948 22.681 26.125
C 15.495 22.653 24.687
H 15.589 22.103 23.848
H 14.755 22.247 25.341
H 15.064 23.576 24.318
C 18.204 20.771 24.497
H 18.673 20.001 25.108
H 17.299 20.283 24.192
C 19.023 20.927 23.219
H 18.623 21.872 22.806
H 20.141 21.103 23.302
H 18.842 20.051 22.599
N 20.993 23.953 27.786
C 21.287 22.795 27.058
C 22.662 22.417 27.15 
C 23.171 23.321 28.058
C 22.15  24.288 28.366
C 23.34  21.223 26.563
H 24.224 21.01  27.175
H 22.736 20.369 26.485
H 23.673 21.516 25.571
C 24.293 23.677 28.884
O 25.347 23.09  29.025
C 24.052 25.07  29.534
H 24.767 25.675 28.897
C 24.487 25.003 30.963
O 23.972 24.234 31.749
O 25.327 26.041 31.359
C 25.648 26.136 32.738
H 25.183 25.448 33.467
H 26.721 26.021 32.902
H 25.425 27.128 33.154
C 24.89  33.011 30.542
H 25.697 32.984 29.765
H 25.254 33.622 31.388
C 23.745 33.696 29.864
H 23.273 33.188 29.043
C 23.246 34.914 30.171
C 23.711 35.822 31.262
H 24.73  35.684 31.385
H 23.399 36.852 30.992
H 23.266 35.485 32.212
C 21.974 35.413 29.449
H 21.684 34.716 28.63 
H 22.166 36.409 28.964
C 20.73  35.462 30.365
H 21.005 35.166 31.342
H 19.993 34.763 30.011
C 20.049 36.803 30.335
H 19.064 36.533 29.836
H 20.534 37.525 29.662
C 19.809 37.53  31.685
H 20.749 37.526 32.32 
C 18.817 36.681 32.539
H 17.777 36.608 32.004
H 19.047 35.616 32.579
H 18.687 37.11  33.499
C 19.482 39.017 31.525
H 19.427 39.508 32.486
H 18.506 39.229 31.071
C 20.489 39.903 30.741
H 21.467 39.398 30.614
H 20.656 40.787 31.296
C 19.889 40.444 29.414
H 19.161 41.212 29.662
H 19.394 39.587 28.921
C 20.961 40.973 28.465
H 21.668 41.523 29.157
C 20.333 42.063 27.51 
H 19.775 41.673 26.665
H 19.711 42.708 28.154
H 21.065 42.687 27.067
C 21.79  39.973 27.672
H 21.201 39.396 26.958
H 22.175 39.181 28.32 
C 22.987 40.504 26.836
H 22.893 41.571 26.697
H 22.839 40.16  25.79 
C 24.436 40.097 27.369
H 24.862 39.457 26.66 
H 24.216 39.411 28.18 
C 25.433 41.252 27.925
H 24.759 41.804 28.599
C 25.973 42.298 26.957
H 26.567 43.057 27.505
H 26.707 41.784 26.242
H 25.181 42.9   26.458
C 26.601 40.611 28.706
H 27.303 40.276 27.966
H 27.09  41.309 29.436
H 26.224 39.765 29.265
