137

Mg 30.52  28.202 41.686
C 27.077 28.29  41.621
C 30.6   27.934 38.255
H 30.744 27.897 37.22 
C 33.804 27.543 41.822
H 34.841 27.3   41.909
C 30.372 28.161 45.228
H 30.357 28.016 46.26 
N 28.992 28.13  40.078
C 27.658 28.197 40.327
C 26.934 28.226 38.983
H 26.228 27.388 38.998
C 28.089 27.963 37.91 
H 27.96  28.707 37.188
C 29.333 28.007 38.784
C 27.949 26.601 37.122
H 28.768 26.329 36.508
H 27.86  25.751 37.703
H 27.059 26.688 36.486
C 26.07  29.557 38.732
H 26.547 30.097 37.862
H 26.206 30.252 39.515
C 24.494 29.485 38.39 
H 24.225 28.437 38.415
H 23.911 30.052 39.176
C 23.881 30.078 37.103
O 22.96  30.853 37.078
O 24.513 29.661 35.957
N 31.983 27.834 40.306
C 31.815 27.771 38.914
C 33.075 27.622 38.212
C 34.014 27.469 39.257
C 33.286 27.574 40.523
C 33.259 27.604 36.754
H 34.245 27.113 36.555
H 32.446 26.977 36.284
H 33.288 28.651 36.54 
C 35.387 27.214 39.172
H 35.804 26.64  40.043
C 36.216 27.729 38.207
H 35.871 28.327 37.375
H 37.301 27.686 38.298
N 31.828 27.906 43.281
C 33.175 27.634 43.084
C 33.834 27.504 44.385
C 32.886 27.621 45.34 
C 31.627 27.906 44.642
C 35.297 27.292 44.486
H 35.562 26.814 45.411
H 35.524 26.588 43.684
H 35.917 28.258 44.497
C 33.029 27.566 46.859
H 32.147 27.186 47.357
H 33.913 26.921 47.027
C 33.362 28.992 47.402
H 34.317 29.45  47.103
H 32.494 29.685 47.014
H 33.378 28.914 48.462
N 29.089 28.397 43.135
C 29.187 28.411 44.519
C 27.726 28.505 45.044
C 26.903 28.487 43.913
C 27.772 28.384 42.816
C 27.178 28.829 46.442
H 26.897 27.948 47.009
H 27.949 29.366 46.908
H 26.37  29.545 46.28 
C 25.546 28.495 43.516
O 24.563 28.572 44.189
C 25.651 28.521 41.962
H 25.277 29.547 41.61 
C 24.764 27.363 41.644
O 25.056 26.195 41.764
O 23.711 27.75  40.876
C 22.96  26.654 40.25 
H 23.659 26.287 39.553
H 22.609 25.965 41.047
H 22.076 26.924 39.711
C 23.983 30.136 34.683
H 24.667 29.926 33.885
H 23.639 31.13  34.676
C 22.761 29.319 34.295
H 22.886 28.238 34.444
C 21.579 29.654 33.655
C 21.184 31.061 33.238
H 21.488 31.25  32.205
H 20.08  31.153 33.29 
H 21.649 31.844 33.77 
C 20.71  28.545 33.144
H 21.289 27.675 32.889
H 20.335 28.748 32.112
C 19.578 28.122 34.093
H 18.967 29.106 34.197
H 20.026 27.902 35.051
C 18.672 27.046 33.607
H 18.724 26.328 34.418
H 19.125 26.447 32.832
C 17.142 27.424 33.474
H 16.866 27.963 34.358
C 16.092 26.319 33.141
H 15.012 26.541 33.27 
H 16.314 25.918 32.127
H 16.341 25.532 33.893
C 16.912 28.543 32.416
H 17.388 29.432 32.92 
H 15.855 28.691 32.399
C 17.452 28.402 31.027
H 17.789 27.407 30.809
H 18.329 28.982 30.851
C 16.312 28.792 30.017
H 16.612 29.344 29.194
H 15.552 29.423 30.472
C 15.447 27.627 29.461
H 15.111 27.008 30.265
C 16.282 26.618 28.64 
H 16.059 26.904 27.585
H 17.397 26.471 28.806
H 15.813 25.678 28.892
C 14.213 28.278 28.623
H 14.748 28.981 28.022
H 13.546 28.692 29.295
C 13.425 27.37  27.573
H 13.722 26.336 27.851
H 13.79  27.596 26.551
C 11.854 27.591 27.679
H 11.813 28.583 28.1  
H 11.547 26.792 28.322
C 11.15  27.581 26.271
H 11.702 28.239 25.683
C  9.65  28.058 26.515
H  9.653 29.054 27.021
H  9.162 28.279 25.529
H  8.999 27.47  27.152
C 11.065 26.108 25.691
H 10.562 26.266 24.697
H 12.144 25.694 25.554
H 10.561 25.475 26.475
