137

Mg 28.749 28.17  33.577
C 26.565 26.9   31.226
C 31.256 28.256 31.115
H 32.031 28.322 30.401
C 30.934 29.534 35.747
H 31.454 30.166 36.374
C 26.333 28.007 35.941
H 25.508 28.063 36.651
N 28.792 27.774 31.344
C 27.776 27.221 30.562
C 28.097 27.042 29.139
H 27.954 26.025 28.723
C 29.66  27.299 29.219
H 29.986 27.983 28.396
C 29.943 27.882 30.655
C 30.433 25.949 29.016
H 29.944 25.229 29.634
H 30.404 25.651 27.971
H 31.461 26.063 29.259
C 27.351 27.983 28.077
H 27.522 29.044 28.377
H 26.259 27.753 28.046
C 27.747 27.744 26.643
H 28.115 28.727 26.362
H 28.638 27.165 26.553
C 26.717 27.346 25.572
O 26.598 27.871 24.508
O 25.876 26.302 25.996
N 30.782 28.748 33.496
C 31.57  28.662 32.401
C 32.926 29.143 32.826
C 32.808 29.561 34.126
C 31.445 29.254 34.483
C 34.061 29.292 31.871
H 34.755 30.032 32.223
H 34.409 28.265 31.641
H 33.55  29.722 30.945
C 33.784 30.21  35.033
H 33.776 29.908 36.061
C 34.833 31.073 34.708
H 35.012 31.506 33.684
H 35.496 31.361 35.489
N 28.65  28.802 35.497
C 29.644 29.347 36.198
C 29.118 29.57  37.568
C 27.778 29.236 37.595
C 27.555 28.603 36.383
C 29.899 30.301 38.61 
H 30.821 29.775 38.941
H 30.306 31.198 38.221
H 29.302 30.507 39.496
C 26.791 29.324 38.789
H 26.364 28.293 39.059
H 27.251 29.665 39.718
C 25.604 30.263 38.553
H 25.007 29.899 37.729
H 25.11  30.395 39.505
H 26.012 31.185 38.292
N 26.924 27.54  33.63 
C 26.019 27.453 34.698
C 24.757 26.835 34.273
C 24.942 26.551 32.907
C 26.259 27.028 32.569
C 23.591 26.541 35.066
H 23.476 27.414 35.706
H 22.646 26.349 34.486
H 23.89  25.748 35.732
C 24.375 25.934 31.708
O 23.311 25.352 31.494
C 25.424 26.174 30.609
H 24.92  26.715 29.81 
C 25.784 24.769 30.12 
O 26.418 23.973 30.769
O 25.593 24.718 28.811
C 26.039 23.416 28.156
H 27.064 23.23  28.302
H 25.465 22.595 28.641
H 25.911 23.468 27.074
C 24.575 26.165 25.362
H 24.545 26.    24.3  
H 24.067 27.158 25.551
C 23.791 25.102 26.119
H 23.367 25.489 27.092
C 23.436 23.84  25.825
C 23.752 23.397 24.466
H 22.863 23.548 23.849
H 24.57  23.873 24.064
H 23.933 22.365 24.48 
C 22.632 22.991 26.764
H 22.428 23.576 27.608
H 23.274 22.141 27.044
C 21.309 22.363 26.323
H 21.357 21.226 26.534
H 21.184 22.351 25.255
C 20.041 22.967 26.865
H 19.726 23.696 26.143
H 20.233 23.596 27.749
C 18.767 22.085 27.224
H 18.584 21.607 26.258
C 17.499 22.963 27.584
H 17.777 23.555 28.442
H 17.164 23.674 26.794
H 16.6   22.48  27.876
C 19.062 20.999 28.292
H 19.795 20.435 27.803
H 18.208 20.431 28.536
C 19.895 21.42  29.535
H 19.664 22.29  30.061
H 20.87  21.688 29.218
C 20.035 20.114 30.376
H 21.064 19.923 30.495
H 19.585 19.219 29.918
C 19.606 20.227 31.886
H 20.026 21.144 32.357
C 19.972 18.959 32.569
H 19.773 19.087 33.663
H 19.392 18.139 32.136
H 21.025 18.855 32.338
C 18.046 20.429 31.906
H 17.53  19.579 31.519
H 17.731 21.253 31.338
C 17.385 20.755 33.273
H 16.789 21.604 33.147
H 18.159 21.2   33.887
C 16.598 19.493 33.837
H 16.562 19.472 34.948
H 17.039 18.53  33.63 
C 15.104 19.494 33.435
H 14.651 20.353 34.042
C 14.284 18.319 33.996
H 14.721 17.508 33.418
H 14.458 18.095 35.065
H 13.202 18.492 33.758
C 14.871 19.686 31.945
H 15.526 19.03  31.358
H 13.785 19.388 31.75 
H 14.893 20.762 31.667
