137

Mg 23.163 19.435 28.116
C 23.389 19.111 24.756
C 26.417 20.661 28.161
H 27.433 21.037 28.242
C 23.055 19.743 31.481
H 23.014 19.628 32.563
C 19.964 18.165 28.038
H 18.89  17.914 28.052
N 24.622 20.019 26.655
C 24.498 19.794 25.274
C 25.709 20.307 24.534
H 26.122 19.597 23.749
C 26.777 20.48  25.676
H 27.284 21.455 25.5  
C 25.925 20.414 26.919
C 27.867 19.387 25.715
H 27.481 18.396 25.855
H 28.481 19.294 24.842
H 28.614 19.655 26.424
C 25.267 21.529 23.701
H 24.991 22.345 24.343
H 24.5   21.273 22.946
C 26.344 21.978 22.731
H 27.241 21.419 22.91 
H 25.976 21.603 21.792
C 26.736 23.422 22.484
O 27.923 23.791 22.397
O 25.617 24.254 22.55 
N 24.429 20.285 29.576
C 25.768 20.593 29.416
C 26.375 20.882 30.716
C 25.391 20.611 31.659
C 24.236 20.203 30.908
C 27.886 21.174 30.877
H 28.238 20.194 30.49 
H 28.188 22.164 30.537
H 28.04  21.016 31.935
C 25.54  20.637 33.15 
H 24.974 19.99  33.73 
C 26.207 21.551 33.848
H 26.885 22.315 33.357
H 26.246 21.573 34.94 
N 21.771 19.099 29.44 
C 21.892 19.245 30.832
C 20.607 19.126 31.463
C 19.735 18.754 30.48 
C 20.478 18.65  29.211
C 20.203 19.288 32.97 
H 19.989 18.333 33.508
H 20.936 19.817 33.666
H 19.325 19.874 33.039
C 18.298 18.46  30.588
H 18.025 17.491 30.008
H 18.011 18.219 31.623
C 17.404 19.498 29.909
H 17.55  19.427 28.833
H 16.342 19.442 30.002
H 17.649 20.546 30.152
N 21.931 18.708 26.741
C 20.647 18.165 26.828
C 20.301 17.633 25.518
C 21.367 17.959 24.706
C 22.349 18.585 25.479
C 19.082 16.785 25.242
H 19.452 15.757 25.207
H 18.325 16.883 26.007
H 18.682 16.965 24.264
C 21.885 17.828 23.361
O 21.337 17.305 22.395
C 23.138 18.534 23.31 
H 22.937 19.294 22.596
C 24.132 17.609 22.79 
O 24.453 16.554 23.341
O 24.654 18.033 21.591
C 25.362 16.976 20.796
H 26.244 16.723 21.283
H 24.815 16.059 20.492
H 25.655 17.454 19.843
C 26.031 25.641 22.346
H 26.565 25.783 21.445
H 26.653 25.904 23.121
C 24.787 26.498 22.38 
H 24.38  26.521 23.404
C 24.168 27.146 21.355
C 24.613 27.179 19.941
H 25.341 26.475 19.744
H 23.812 27.074 19.209
H 25.137 28.16  19.814
C 22.777 27.836 21.727
H 22.191 27.269 22.425
H 22.29  27.704 20.741
C 22.524 29.361 21.865
H 22.125 29.717 20.863
H 23.41  29.975 21.946
C 21.489 29.672 23.028
H 20.864 28.784 23.294
H 20.886 30.447 22.621
C 22.137 30.313 24.26 
H 22.499 31.254 23.872
C 23.273 29.49  24.761
H 23.694 29.901 25.657
H 22.872 28.472 25.099
H 24.104 29.43  24.022
C 21.084 30.654 25.409
H 21.658 30.784 26.361
H 20.587 29.765 25.575
C 19.982 31.708 25.108
H 19.124 31.046 24.986
H 20.294 32.31  24.217
C 19.668 32.525 26.302
H 19.749 33.527 25.918
H 20.438 32.4   27.012
C 18.218 32.407 27.007
H 17.487 32.707 26.25 
C 18.097 33.438 28.177
H 18.582 33.075 29.119
H 18.537 34.372 27.958
H 17.101 33.841 28.425
C 17.934 31.008 27.445
H 18.148 30.78  28.478
H 18.562 30.334 26.934
C 16.474 30.607 27.467
H 16.236 30.492 26.393
H 15.789 31.269 28.007
C 16.341 29.216 28.147
H 17.249 28.907 28.632
H 16.147 28.443 27.305
C 15.057 29.079 29.112
H 15.183 29.848 29.847
C 15.001 27.695 29.897
H 15.809 27.479 30.606
H 14.008 27.586 30.336
H 15.024 26.862 29.189
C 13.675 29.303 28.373
H 13.494 30.33  28.195
H 13.544 28.679 27.491
H 12.941 28.95  28.988
