137

Mg 26.698 32.865 41.026
C 24.575 30.278 41.688
C 24.079 34.587 39.599
H 23.262 35.266 39.232
C 28.766 35.551 40.341
H 29.45  36.417 40.177
C 29.268 31.132 42.543
H 30.118 30.512 42.826
N 24.637 32.584 40.83 
C 24.008 31.437 41.127
C 22.497 31.4   40.64 
H 22.398 30.561 39.943
C 22.355 32.822 39.994
H 21.708 33.504 40.671
C 23.775 33.412 40.178
C 21.93  32.894 38.529
H 21.643 33.953 38.344
H 22.791 32.553 37.957
H 21.039 32.229 38.416
C 21.382 31.181 41.83 
H 21.275 32.083 42.343
H 21.867 30.551 42.593
C 20.029 30.756 41.361
H 20.071 30.569 40.288
H 19.644 29.822 41.733
C 18.945 31.78  41.536
O 18.325 31.864 42.541
O 19.033 32.739 40.57 
N 26.478 34.736 40.19 
C 25.315 35.263 39.645
C 25.532 36.543 39.007
C 26.894 36.855 39.228
C 27.47  35.686 39.954
C 24.507 37.417 38.276
H 24.236 36.984 37.32 
H 23.664 37.556 38.932
H 24.905 38.505 38.132
C 27.74  37.946 38.685
H 27.457 38.998 38.754
C 28.836 37.713 37.944
H 29.289 36.72  37.687
H 29.332 38.544 37.41 
N 28.663 33.246 41.278
C 29.308 34.409 40.959
C 30.748 34.241 41.357
C 30.948 32.897 41.79 
C 29.641 32.373 41.859
C 31.838 35.301 41.073
H 32.139 35.328 40.033
H 31.483 36.27  41.26 
H 32.723 35.122 41.672
C 32.274 32.189 42.227
H 32.243 31.179 41.804
H 33.153 32.56  41.708
C 32.413 32.24  43.749
H 31.692 31.652 44.218
H 33.358 31.819 44.076
H 32.432 33.242 44.105
N 26.897 31.114 42.063
C 27.982 30.477 42.547
C 27.699 29.134 43.136
C 26.398 28.961 42.665
C 25.912 30.223 42.103
C 28.561 28.082 43.783
H 29.499 28.554 44.031
H 28.174 27.627 44.663
H 29.027 27.326 43.164
C 25.29  27.985 42.451
O 25.228 26.804 42.619
C 24.074 28.861 41.931
H 23.257 28.821 42.757
C 23.617 28.075 40.809
O 24.093 28.032 39.685
O 22.339 27.577 41.137
C 21.705 26.767 40.04 
H 22.37  25.931 39.599
H 20.747 26.397 40.485
H 21.477 27.466 39.241
C 18.556 34.043 40.907
H 19.235 34.538 41.657
H 17.594 34.018 41.383
C 18.369 34.864 39.614
H 17.596 34.553 39.004
C 18.999 35.972 39.178
C 20.129 36.673 39.972
H 20.744 36.07  40.617
H 20.809 37.06  39.238
H 19.742 37.548 40.476
C 18.812 36.432 37.733
H 18.288 35.683 37.149
H 19.838 36.495 37.326
C 18.033 37.796 37.641
H 18.623 38.558 37.22 
H 17.997 38.132 38.689
C 16.626 37.616 37.044
H 15.91  38.199 37.572
H 16.153 36.641 37.196
C 16.455 38.017 35.492
H 16.845 39.048 35.541
C 15.041 38.192 34.964
H 14.493 38.641 35.786
H 14.871 38.895 34.158
H 14.511 37.244 34.735
C 17.37  37.381 34.412
H 18.376 37.507 34.733
H 17.224 37.943 33.55 
C 17.092 35.986 33.929
H 16.915 36.198 32.9  
H 16.241 35.632 34.46 
C 18.301 35.017 34.071
H 18.352 34.925 35.164
H 19.27  35.442 33.597
C 18.176 33.531 33.472
H 17.614 32.929 34.159
C 19.562 32.917 33.381
H 19.6   31.763 33.301
H 20.056 33.234 32.48 
H 20.081 33.246 34.295
C 17.408 33.54  32.138
H 17.756 34.293 31.415
H 16.426 33.884 32.41 
C 17.288 32.251 31.408
H 16.178 32.058 31.353
H 17.696 31.438 31.906
C 17.91  32.241 30.055
H 18.602 32.991 30.05 
H 17.186 32.442 29.301
C 18.387 30.841 29.559
H 19.023 30.445 30.328
C 19.22  30.934 28.233
H 19.525 29.907 27.89 
H 18.817 31.438 27.383
H 20.153 31.417 28.611
C 17.203 29.792 29.431
H 16.555 30.287 28.731
H 17.58  28.841 29.076
H 16.62  29.443 30.302
