137

Mg 21.361 24.892 27.733
C 24.743 24.298 27.935
C 21.699 27.484 30.125
H 21.683 28.252 30.904
C 18.158 25.563 27.449
H 17.077 25.735 27.435
C 21.148 22.45  25.287
H 21.166 21.703 24.532
N 23.048 25.88  28.772
C 24.411 25.398 28.742
C 25.225 26.168 29.732
H 25.608 25.519 30.491
C 24.218 27.094 30.362
H 24.372 28.062 29.936
C 22.885 26.748 29.791
C 24.218 27.095 31.874
H 25.094 27.708 32.254
H 23.276 27.527 32.255
H 24.286 26.101 32.203
C 26.491 26.949 29.2  
H 26.132 27.574 28.397
H 27.045 26.149 28.759
C 27.438 27.749 30.119
H 27.208 27.616 31.127
H 28.433 27.386 29.843
C 27.676 29.26  29.947
O 28.781 29.75  29.897
O 26.489 29.915 30.07 
N 20.096 26.357 28.614
C 20.407 27.304 29.557
C 19.238 28.067 29.88 
C 18.199 27.506 29.14 
C 18.754 26.434 28.37 
C 19.147 29.331 30.777
H 19.832 29.375 31.667
H 19.307 30.205 30.152
H 18.15  29.389 31.15 
C 16.845 28.041 29.084
H 16.575 28.695 29.961
C 15.911 28.041 28.106
H 16.098 27.528 27.144
H 15.065 28.726 28.202
N 19.916 24.113 26.625
C 18.696 24.567 26.635
C 17.895 23.723 25.729
C 18.775 22.776 25.157
C 20.012 23.133 25.671
C 16.429 23.82  25.62 
H 16.012 23.15  24.83 
H 15.86  23.481 26.445
H 16.195 24.861 25.548
C 18.457 21.726 24.099
H 18.821 20.789 24.437
H 17.363 21.703 24.079
C 19.075 21.899 22.649
H 18.889 20.972 22.129
H 18.644 22.78  22.183
H 20.142 21.921 22.733
N 22.62  23.623 26.811
C 22.373 22.593 25.851
C 23.615 21.907 25.568
C 24.528 22.469 26.435
C 23.884 23.542 27.114
C 23.878 20.805 24.509
H 23.609 19.809 24.89 
H 23.359 21.09  23.582
H 25.001 20.767 24.415
C 25.938 22.451 26.896
O 26.817 21.734 26.458
C 26.127 23.664 27.726
H 26.85  24.168 27.073
C 26.712 23.162 29.021
O 26.263 22.286 29.749
O 27.838 23.925 29.218
C 28.601 23.593 30.396
H 29.308 22.776 30.25 
H 29.238 24.441 30.602
H 28.003 23.257 31.282
C 26.727 31.365 30.054
H 26.971 31.813 29.069
H 27.481 31.69  30.783
C 25.385 31.935 30.465
H 25.014 31.481 31.335
C 24.805 32.991 29.906
C 25.184 33.656 28.551
H 26.128 34.144 28.62 
H 25.192 32.778 27.825
H 24.6   34.471 28.166
C 23.524 33.543 30.432
H 23.044 32.892 31.031
H 22.823 33.678 29.591
C 23.657 34.818 31.27 
H 24.608 34.997 31.773
H 22.948 34.67  32.073
C 23.334 36.098 30.461
H 23.519 36.015 29.323
H 23.982 36.839 30.858
C 21.925 36.756 30.872
H 21.93  36.982 32.023
C 20.707 35.829 30.531
H 20.828 35.548 29.465
H 20.773 34.936 31.101
H 19.685 36.216 30.673
C 21.681 38.04  29.984
H 20.638 38.378 29.855
H 22.005 37.799 28.922
C 22.594 39.234 30.29 
H 22.957 39.633 29.341
H 23.399 39.003 31.012
C 21.93 40.45 31.02
H 22.509 40.56  32.021
H 20.895 40.251 31.181
C 21.991 41.843 30.245
H 22.938 41.826 29.721
C 22.25  43.011 31.252
H 23.283 43.014 31.48 
H 22.013 43.873 30.635
H 21.567 42.862 32.073
C 20.778 41.955 29.206
H 19.911 41.943 29.921
H 20.702 41.076 28.576
C 20.683 43.156 28.246
H 20.64  42.762 27.268
H 21.553 43.795 28.386
C 19.475 44.046 28.43 
H 19.449 44.474 29.414
H 18.49  43.588 28.24 
C 19.39  45.204 27.372
H 19.379 44.668 26.406
C 20.555 46.194 27.541
H 20.415 46.952 26.761
H 20.5   46.615 28.507
H 21.544 45.681 27.516
C 17.988 45.947 27.6  
H 17.947 46.144 28.671
H 17.998 46.853 27.132
H 17.179 45.452 27.111
