137

Mg 35.916 34.46  35.033
C 32.824 33.534 33.62 
C 37.55  32.92  32.388
H 38.117 32.476 31.572
C 38.842 35.536 36.274
H 39.768 35.844 36.684
C 34.198 36.115 37.433
H 33.763 36.553 38.303
N 35.276 33.498 33.208
C 33.939 33.181 32.848
C 33.833 32.416 31.599
H 33.386 31.434 31.765
C 35.327 32.157 31.267
H 35.563 32.707 30.338
C 36.137 32.911 32.369
C 35.834 30.689 31.113
H 36.826 30.608 30.837
H 35.728 30.118 32.039
H 35.259 30.195 30.32 
C 32.976 33.113 30.476
H 33.577 33.914 30.035
H 32.078 33.468 30.905
C 32.696 32.297 29.23 
H 32.93  32.787 28.288
H 33.394 31.515 29.375
C 31.294 31.678 29.124
O 30.977 30.631 29.657
O 30.406 32.534 28.49 
N 37.914 34.275 34.453
C 38.348 33.588 33.331
C 39.837 33.775 33.263
C 40.256 34.389 34.444
C 38.98  34.821 35.103
C 40.553 33.354 31.953
H 40.599 32.255 31.78 
H 40.109 33.84  31.096
H 41.619 33.66  32.161
C 41.633 34.746 34.913
H 41.757 35.58  35.707
C 42.722 34.055 34.66 
H 42.793 33.149 34.038
H 43.675 34.32  35.077
N 36.446 35.751 36.462
C 37.728 36.055 36.894
C 37.734 37.052 38.031
C 36.377 37.128 38.371
C 35.612 36.308 37.435
C 38.917 37.552 38.654
H 39.812 37.144 38.36 
H 38.836 38.654 38.436
H 38.769 37.391 39.744
C 35.767 37.821 39.569
H 34.883 37.282 39.84 
H 36.441 37.923 40.378
C 35.358 39.268 39.23 
H 36.27  39.764 39.021
H 34.696 39.277 38.324
H 34.925 39.644 40.096
N 33.978 34.645 35.612
C 33.401 35.358 36.584
C 31.981 35.173 36.62 
C 31.704 34.396 35.515
C 32.905 34.244 34.866
C 30.906 35.684 37.484
H 30.421 34.818 37.866
H 31.271 36.18  38.322
H 30.177 36.267 36.885
C 30.678 33.711 34.805
O 29.475 33.719 35.103
C 31.314 33.244 33.505
H 30.903 33.785 32.654
C 30.951 31.883 33.558
O 31.465 31.051 34.245
O 29.979 31.488 32.609
C 29.276 30.175 32.7  
H 29.466 29.53  31.811
H 29.543 29.612 33.562
H 28.211 30.284 32.762
C 29.025 32.072 28.496
H 28.682 31.712 29.407
H 28.899 31.235 27.807
C 28.121 33.139 27.887
H 28.35  33.416 26.888
C 26.946 33.565 28.372
C 26.373 33.272 29.705
H 25.96  34.173 30.266
H 25.486 32.626 29.611
H 27.203 32.884 30.274
C 26.158 34.677 27.683
H 26.812 35.221 27.024
H 25.821 35.38  28.446
C 25.009 34.203 26.88 
H 25.185 33.214 26.491
H 24.859 34.865 26.061
C 23.685 34.188 27.617
H 22.97  34.855 27.147
H 23.801 34.542 28.601
C 22.813 32.935 27.692
H 23.424 32.027 27.942
C 22.239 32.61  26.24 
H 21.583 33.432 25.945
H 23.034 32.443 25.526
H 21.566 31.746 26.216
C 21.718 33.044 28.78 
H 21.217 32.108 28.721
H 20.983 33.875 28.676
C 22.227 33.163 30.256
H 21.862 34.181 30.617
H 23.324 33.224 30.324
C 21.674 31.995 31.11 
H 22.598 31.722 31.76 
H 21.303 31.137 30.488
C 20.571 32.3   32.13 
H 19.624 32.53  31.586
C 20.884 33.418 33.157
H 21.788 33.24  33.711
H 20.843 34.428 32.833
H 20.127 33.443 33.915
C 20.288 30.853 32.85 
H 20.909 30.91  33.793
H 20.639 30.013 32.233
C 18.774 30.632 33.13 
H 18.369 30.068 32.327
H 18.268 31.605 33.136
C 18.589 29.875 34.435
H 19.411 30.021 35.121
H 18.574 28.856 34.116
C 17.221 30.165 35.144
H 16.512 30.104 34.324
C 17.099 31.55  35.934
H 16.072 31.711 36.341
H 17.708 31.508 36.84 
H 17.397 32.45  35.355
C 16.86  28.982 36.039
H 15.798 28.981 36.205
H 17.144 28.028 35.577
H 17.428 29.032 36.974
