137

Mg 23.699 25.458 38.083
C 21.203 23.019 38.681
C 24.015 24.225 34.867
H 24.197 23.925 33.814
C 25.583 28.128 37.429
H 26.201 28.992 37.217
C 23.223 26.506 41.367
H 23.18  26.871 42.347
N 22.716 23.857 36.943
C 21.668 23.025 37.352
C 21.327 21.953 36.275
H 21.447 20.974 36.569
C 22.408 22.205 35.152
H 21.981 22.496 34.213
C 23.201 23.477 35.684
C 23.376 20.988 34.885
H 23.549 20.496 35.831
H 22.959 20.166 34.273
H 24.314 21.384 34.529
C 19.879 22.097 35.693
H 19.776 23.115 35.377
H 19.15  22.076 36.444
C 19.472 21.208 34.443
H 20.017 20.272 34.41 
H 18.429 20.899 34.56 
C 19.414 21.956 33.098
O 19.61  23.14  32.946
O 18.919 21.081 32.198
N 24.648 26.141 36.424
C 24.555 25.496 35.125
C 25.416 26.333 34.201
C 25.882 27.386 34.945
C 25.368 27.273 36.317
C 25.847 25.903 32.765
H 25.168 26.246 31.975
H 26.84  26.171 32.483
H 25.827 24.821 32.74 
C 26.926 28.25  34.49 
H 27.885 28.212 34.995
C 26.894 29.015 33.36 
H 25.979 29.063 32.734
H 27.728 29.608 33.092
N 24.318 27.078 39.196
C 25.088 28.08  38.763
C 25.404 29.05  39.894
C 24.734 28.479 41.013
C 24.088 27.226 40.521
C 26.258 30.266 39.81 
H 25.936 30.863 38.942
H 26.032 30.835 40.713
H 27.345 30.031 39.672
C 24.536 29.149 42.376
H 24.727 28.425 43.211
H 25.229 29.983 42.511
C 23.159 29.759 42.553
H 22.41  28.956 42.482
H 23.107 30.126 43.581
H 23.115 30.606 41.84 
N 22.503 24.938 39.676
C 22.426 25.41  40.988
C 21.391 24.737 41.781
C 20.925 23.772 40.901
C 21.627 23.931 39.638
C 21.123 24.91  43.222
H 21.045 25.936 43.546
H 20.197 24.449 43.433
H 21.979 24.415 43.77 
C 19.995 22.711 40.732
O 19.102 22.246 41.46 
C 20.162 22.074 39.311
H 19.229 22.079 38.783
C 20.79  20.697 39.527
O 21.901 20.429 39.94 
O 19.78  19.817 39.317
C 20.105 18.419 39.738
H 19.317 17.67  39.73 
H 20.639 18.023 38.892
H 20.716 18.369 40.614
C 18.582 21.513 30.889
H 19.473 21.885 30.35 
H 17.826 22.35  30.896
C 18.071 20.372 30.122
H 18.861 19.652 30.004
C 16.779 20.064 29.77 
C 15.514 20.987 29.927
H 14.96  20.759 30.817
H 15.773 22.012 30.01 
H 14.883 20.959 29.065
C 16.449 18.714 29.125
H 17.334 18.196 29.044
H 15.943 18.969 28.194
C 15.69  17.837 30.12 
H 15.305 18.463 30.985
H 16.45  17.239 30.62 
C 14.65  16.828 29.495
H 14.863 15.784 29.753
H 14.77  16.767 28.363
C 13.127 17.056 29.908
H 13.027 17.039 30.984
C 12.285 15.816 29.478
H 11.247 15.895 29.844
H 12.091 15.702 28.384
H 12.779 14.94  29.815
C 12.458 18.402 29.485
H 13.055 19.191 30.029
H 11.437 18.424 29.924
C 12.46  18.811 27.997
H 13.284 18.371 27.404
H 12.697 19.925 28.034
C 11.08  18.552 27.286
H 10.405 17.934 27.916
H 11.194 17.87  26.398
C 10.276 19.807 26.833
H 10.899 20.429 26.156
C  9.898 20.769 28.051
H  9.609 20.202 28.945
H 10.791 21.337 28.316
H  9.13  21.35  27.551
C  8.981 19.343 26.008
H  8.253 18.917 26.774
H  9.275 18.501 25.377
C  8.158 20.408 25.149
H  8.822 21.135 24.705
H  7.579 20.889 25.982
C  7.286 19.861 24.045
H  6.382 20.465 24.16 
H  7.069 18.822 24.259
C  7.685 19.886 22.473
H  7.843 20.888 22.189
C  6.584 19.323 21.642
H  6.535 18.252 21.918
H  5.588 19.728 21.86 
H  6.787 19.381 20.579
C  8.989 19.234 22.255
H  9.296 19.457 21.26 
H  9.764 19.567 22.963
H  8.931 18.112 22.376
