137

Mg 23.637 31.174 33.896
C 22.61  28.534 36.006
C 20.537 31.127 32.506
H 19.579 31.203 32.096
C 24.608 33.599 31.788
H 24.926 34.422 31.091
C 26.978 30.694 34.882
H 28.008 30.483 35.143
N 21.761 29.933 34.221
C 21.519 29.054 35.262
C 20.074 28.591 35.3  
H 19.942 27.511 35.228
C 19.48  29.357 34.033
H 18.735 30.079 34.293
C 20.672 30.16  33.479
C 18.812 28.481 32.934
H 18.502 29.181 32.17 
H 19.478 27.708 32.649
H 17.932 27.994 33.336
C 19.547 28.903 36.697
H 20.064 29.702 37.12 
H 19.831 28.037 37.328
C 17.999 28.994 36.858
H 17.6  28.39 35.99
H 17.648 28.586 37.8  
C 17.323 30.36  36.87 
O 17.882 31.308 37.341
O 16.029 30.344 36.325
N 22.709 32.265 32.494
C 21.415 32.126 32.062
C 21.095 33.138 31.042
C 22.19  33.989 31.061
C 23.231 33.28  31.8  
C 19.836 33.356 30.259
H 19.074 32.572 30.487
H 19.408 34.295 30.696
H 20.148 33.546 29.234
C 22.435 35.186 30.323
H 23.437 35.289 29.831
C 21.533 36.155 30.032
H 20.51  36.118 30.364
H 21.861 37.001 29.508
N 25.466 32.018 33.404
C 25.638 33.04  32.544
C 27.029 33.405 32.472
C 27.699 32.551 33.292
C 26.755 31.721 33.951
C 27.506 34.489 31.663
H 27.434 34.2   30.612
H 26.946 35.418 31.762
H 28.569 34.771 31.745
C 29.158 32.6   33.557
H 29.641 31.722 33.159
H 29.516 33.508 33.118
C 29.477 32.893 35.   
H 30.612 33.123 35.074
H 28.92  33.721 35.399
H 29.203 32.008 35.552
N 24.627 29.966 35.276
C 25.968 29.907 35.561
C 26.151 28.77  36.577
C 24.885 28.205 36.751
C 23.988 28.928 35.934
C 27.477 28.208 37.217
H 27.606 28.656 38.192
H 27.275 27.125 37.385
H 28.4   28.336 36.624
C 24.136 27.173 37.37 
O 24.489 26.314 38.181
C 22.655 27.387 36.965
H 22.114 27.496 37.884
C 22.303 26.145 36.262
O 22.824 25.724 35.259
O 21.246 25.46  36.897
C 20.946 24.109 36.3  
H 20.654 24.217 35.26 
H 21.813 23.478 36.283
H 20.162 23.542 36.771
C 15.521 31.705 36.234
H 15.712 32.271 37.095
H 14.412 31.752 36.172
C 16.178 32.291 35.015
H 16.049 31.565 34.307
C 16.742 33.515 34.74 
C 16.951 34.736 35.575
H 15.978 35.375 35.458
H 16.991 34.475 36.646
H 17.852 35.224 35.311
C 17.212 33.726 33.314
H 17.712 32.769 32.976
H 18.003 34.46  33.202
C 16.078 34.091 32.327
H 15.234 34.494 32.904
H 15.682 33.184 31.913
C 16.568 34.955 31.156
H 16.411 34.385 30.25 
H 17.608 35.18  31.304
C 15.732 36.3   30.953
H 14.706 36.028 30.889
C 16.082 37.038 29.616
H 15.339 37.848 29.45 
H 17.012 37.553 29.631
H 16.066 36.238 28.82 
C 15.769 37.322 32.152
H 15.21  36.876 32.946
H 15.281 38.245 31.859
C 17.192 37.552 32.668
H 17.881 37.273 31.823
H 17.293 36.856 33.461
C 17.43  39.01  33.007
H 17.499 39.126 34.074
H 16.695 39.633 32.645
C 18.79  39.385 32.456
H 18.719 39.283 31.39 
C 19.893 38.391 33.01 
H 20.816 38.825 32.65 
H 19.997 38.503 34.112
H 19.752 37.336 32.788
C 19.17  40.894 32.661
H 20.183 40.986 32.22 
H 19.239 41.126 33.734
C 18.202 41.963 31.997
H 17.787 42.529 32.783
H 17.404 41.523 31.417
C 18.808 42.914 30.972
H 18.466 42.505 29.974
H 19.882 42.685 31.149
C 18.502 44.462 30.986
H 18.69  44.876 32.022
C 17.068 44.744 30.579
H 16.827 45.766 30.715
H 16.977 44.564 29.541
H 16.423 44.066 31.083
C 19.483 45.251 30.089
H 19.309 46.369 30.308
H 20.545 45.048 30.387
H 19.267 45.063 29.014
