137

Mg 20.888 17.408 24.968
C 22.927 18.016 22.351
C 23.177 18.949 27.09 
H 23.954 19.4   27.713
C 19.038 16.421 27.593
H 18.419 16.054 28.43 
C 18.88  15.508 22.861
H 18.388 14.982 22.035
N 22.765 18.374 24.729
C 23.368 18.548 23.505
C 24.591 19.516 23.65 
H 25.498 19.105 23.208
C 24.83  19.479 25.227
H 24.825 20.429 25.664
C 23.479 18.892 25.723
C 26.022 18.558 25.683
H 25.943 17.679 25.111
H 26.904 19.121 25.305
H 25.971 18.417 26.77 
C 24.215 20.931 23.135
H 23.436 21.301 23.798
H 23.71  20.785 22.165
C 25.256 22.01  22.84 
H 26.148 21.599 22.368
H 24.866 22.753 22.18 
C 25.71  22.838 24.052
O 26.859 23.227 24.256
O 24.655 23.131 24.877
N 20.964 17.771 27.037
C 21.999 18.413 27.713
C 21.637 18.376 29.165
C 20.481 17.594 29.325
C 20.1   17.216 27.976
C 22.544 18.98  30.215
H 23.627 19.068 29.898
H 22.224 19.946 30.358
H 22.549 18.443 31.197
C 19.861 17.163 30.619
H 19.216 16.287 30.629
C 19.942 17.934 31.776
H 20.487 18.914 31.761
H 19.472 17.596 32.736
N 19.305 16.174 25.185
C 18.675 15.925 26.329
C 17.537 15.048 26.18 
C 17.541 14.77  24.832
C 18.574 15.584 24.245
C 16.606 14.581 27.361
H 15.854 13.936 26.948
H 17.258 14.12  28.123
H 16.186 15.495 27.79 
C 16.633 13.947 24.041
H 17.161 13.464 23.203
H 16.218 13.171 24.678
C 15.54  14.806 23.43 
H 14.839 14.986 24.224
H 16.045 15.693 22.971
H 14.919 14.215 22.719
N 20.943 16.77  23.094
C 20.012 16.108 22.364
C 20.548 15.938 20.951
C 21.669 16.804 20.918
C 21.832 17.245 22.205
C 19.91  15.128 19.843
H 19.733 14.131 20.38 
H 19.039 15.622 19.418
H 20.642 14.874 19.084
C 22.666 17.321 20.049
O 22.802 17.163 18.839
C 23.633 18.048 20.965
H 23.85  19.091 20.73 
C 24.998 17.384 20.676
O 25.259 16.253 20.904
O 25.891 18.255 20.092
C 27.222 17.599 19.86 
H 27.935 18.348 19.554
H 27.547 17.076 20.78 
H 27.177 16.858 19.052
C 25.035 23.881 26.067
H 25.367 24.83  25.705
H 25.852 23.369 26.41 
C 23.91  23.945 27.124
H 23.465 23.025 27.325
C 23.271 25.066 27.56 
C 23.764 26.482 27.322
H 24.55  26.578 26.531
H 23.018 27.134 26.939
H 24.17  26.852 28.279
C 21.804 24.837 27.927
H 21.667 23.749 28.037
H 21.225 25.137 27.026
C 21.374 25.47  29.222
H 22.253 25.915 29.773
H 20.877 24.734 29.847
C 20.333 26.627 29.12 
H 19.347 26.302 29.383
H 20.307 26.945 28.069
C 20.535 27.944 29.998
H 21.591 28.183 29.768
C 20.606 27.558 31.496
H 20.593 28.544 32.077
H 19.812 26.829 31.858
H 21.652 27.298 31.686
C 19.572 29.143 29.629
H 19.829 30.083 30.233
H 18.533 28.861 29.814
C 19.49  29.566 28.118
H 18.578 29.173 27.649
H 20.332 29.141 27.576
C 19.622 31.073 27.872
H 20.452 31.203 27.217
H 19.917 31.575 28.812
C 18.43  31.857 27.308
H 18.086 31.291 26.413
C 19.06  33.297 26.926
H 19.464 33.884 27.787
H 19.866 33.201 26.203
H 18.367 34.002 26.422
C 17.297 32.129 28.386
H 17.647 32.683 29.22 
H 16.922 31.154 28.701
C 16.156 32.999 27.843
H 16.071 32.788 26.828
H 16.403 33.994 28.1  
C 14.734 32.746 28.459
H 14.814 32.054 29.353
H 14.171 32.237 27.646
C 13.836 33.933 28.852
H 14.462 34.6   29.5  
C 12.609 33.396 29.638
H 13.066 33.143 30.609
H 11.925 34.282 29.805
H 12.184 32.621 29.004
C 13.527 34.732 27.631
H 14.537 35.037 27.309
H 12.939 34.069 26.945
H 13.01  35.666 27.892
