137

Mg 21.693 18.003 29.12 
C 23.6   16.002 27.22 
C 23.595 20.6   28.215
H 24.246 21.36  27.899
C 19.985 19.918 31.396
H 19.463 20.493 32.157
C 20.126 15.169 30.505
H 19.781 14.327 31.06 
N 23.417 18.234 27.894
C 23.953 17.306 27.099
C 24.971 17.911 26.106
H 25.892 17.306 26.105
C 25.232 19.319 26.67 
H 25.081 20.169 25.996
C 24.031 19.39  27.675
C 26.554 19.584 27.295
H 27.288 19.216 26.597
H 26.74  20.659 27.452
H 26.642 19.024 28.223
C 24.484 17.901 24.675
H 23.526 18.403 24.557
H 24.36  16.925 24.304
C 25.478 18.673 23.717
H 26.325 18.975 24.255
H 25.728 17.947 23.016
C 24.955 19.84  22.949
O 25.237 20.191 21.841
O 24.212 20.652 23.757
N 21.756 19.975 29.609
C 22.594 20.9   29.135
C 22.229 22.228 29.71 
C 21.157 22.073 30.607
C 20.927 20.614 30.562
C 22.948 23.51  29.431
H 22.141 24.13  29.233
H 23.637 23.887 30.177
H 23.498 23.533 28.517
C 20.508 22.991 31.586
H 20.031 22.476 32.433
C 20.547 24.335 31.713
H 21.245 24.909 31.006
H 20.188 24.784 32.643
N 20.347 17.635 30.72 
C 19.699 18.539 31.499
C 18.788 17.939 32.413
C 18.804 16.551 32.107
C 19.798 16.435 31.056
C 18.006 18.74  33.492
H 17.27  19.437 33.171
H 17.628 18.002 34.18 
H 18.694 19.392 34.075
C 18.1  15.52 32.87
H 18.739 14.682 33.099
H 17.692 15.859 33.859
C 16.77  15.09  32.136
H 16.994 14.497 31.277
H 16.154 14.57  32.874
H 16.411 16.056 31.879
N 21.845 16.022 28.962
C 21.095 15.01  29.489
C 21.552 13.737 28.933
C 22.477 14.098 27.989
C 22.66  15.495 28.099
C 21.024 12.363 29.222
H 20.139 12.48  28.567
H 21.776 11.705 28.786
H 20.858 12.208 30.29 
C 23.396 13.522 26.982
O 23.615 12.354 26.634
C 24.062 14.813 26.347
H 23.881 14.899 25.294
C 25.499 14.512 26.466
O 26.096 14.436 27.524
O 26.116 14.464 25.231
C 27.537 14.248 25.113
H 28.058 14.995 25.816
H 27.712 13.24  25.381
H 27.887 14.412 24.092
C 23.74  21.847 23.105
H 23.183 21.637 22.188
H 24.597 22.523 23.02 
C 22.814 22.572 24.082
H 23.06  22.491 25.133
C 21.651 23.261 24.006
C 20.822 23.434 22.681
H 19.789 23.24  22.804
H 20.885 24.485 22.365
H 21.35  23.015 21.82 
C 20.997 23.923 25.213
H 21.48  23.582 26.19 
H 19.972 23.533 25.122
C 20.987 25.468 25.091
H 20.016 25.77  24.637
H 21.794 25.842 24.437
C 21.187 26.159 26.512
H 21.097 25.408 27.248
H 20.305 26.823 26.523
C 22.474 27.035 26.776
H 22.385 27.862 26.073
C 23.908 26.391 26.427
H 24.134 25.446 26.864
H 24.01  26.352 25.362
H 24.707 27.053 26.747
C 22.434 27.699 28.172
H 23.496 27.745 28.544
H 21.938 26.968 28.785
C 21.792 29.105 28.248
H 21.818 29.469 27.202
H 22.438 29.718 28.903
C 20.341 29.    28.708
H 20.237 29.3   29.735
H 20.123 27.962 28.706
C 19.229 29.735 27.857
H 19.449 29.326 26.861
C 19.565 31.282 27.888
H 20.629 31.401 27.591
H 18.909 31.798 27.191
H 19.432 31.78  28.868
C 17.796 29.502 28.5  
H 17.755 29.705 29.576
H 17.63  28.382 28.403
C 16.621 30.18  27.755
H 16.957 30.604 26.778
H 16.262 31.041 28.414
C 15.437 29.171 27.347
H 15.632 28.14  27.538
H 15.251 29.356 26.257
C 14.074 29.502 27.976
H 14.216 29.844 28.988
C 13.187 28.296 27.957
H 12.197 28.463 28.418
H 12.931 27.954 26.956
H 13.795 27.608 28.591
C 13.358 30.588 27.207
H 13.254 30.334 26.118
H 12.358 30.741 27.64 
H 13.768 31.592 27.182
