137

Mg 29.002 27.555 42.164
C 25.616 27.38  42.394
C 28.589 27.04  38.761
H 28.454 26.772 37.721
C 32.311 27.472 41.836
H 33.412 27.54  41.879
C 29.323 27.604 45.584
H 29.213 27.655 46.683
N 27.269 27.368 40.81 
C 25.996 27.418 41.105
C 25.088 27.466 39.879
H 24.37  26.653 39.99 
C 26.075 27.156 38.717
H 26.001 27.956 37.988
C 27.439 27.217 39.45 
C 25.669 25.798 38.046
H 26.453 25.619 37.301
H 25.58  24.908 38.68 
H 24.762 26.024 37.501
C 24.298 28.724 39.799
H 25.011 29.563 39.652
H 23.839 28.973 40.739
C 23.142 28.755 38.82 
H 23.127 27.786 38.275
H 22.203 28.871 39.293
C 23.265 29.817 37.794
O 24.305 30.427 37.555
O 22.134 29.925 37.067
N 30.261 27.479 40.478
C 29.953 27.225 39.187
C 31.103 27.273 38.395
C 32.169 27.575 39.256
C 31.629 27.47  40.597
C 31.105 27.158 36.857
H 31.449 28.064 36.376
H 31.748 26.27  36.637
H 30.125 26.988 36.452
C 33.635 27.565 38.91 
H 34.249 26.937 39.557
C 34.157 28.212 37.845
H 33.511 28.847 37.232
H 35.162 28.076 37.503
N 30.559 27.558 43.473
C 31.849 27.491 43.119
C 32.655 27.525 44.299
C 31.775 27.666 45.41 
C 30.484 27.616 44.865
C 34.131 27.36  44.462
H 34.559 28.354 44.437
H 34.342 26.827 45.422
H 34.485 26.697 43.698
C 32.169 27.763 46.915
H 31.628 27.013 47.506
H 33.234 27.778 47.192
C 31.632 29.02  47.593
H 31.827 29.068 48.68 
H 32.046 29.817 47.041
H 30.558 29.106 47.423
N 27.759 27.402 43.707
C 28.003 27.546 45.081
C 26.723 27.433 45.749
C 25.776 27.429 44.702
C 26.456 27.382 43.532
C 26.486 27.452 47.299
H 26.869 26.515 47.722
H 26.795 28.391 47.74 
H 25.421 27.368 47.592
C 24.363 27.36  44.565
O 23.439 27.564 45.325
C 24.188 27.256 43.018
H 23.571 28.045 42.777
C 23.448 26.044 42.659
O 23.835 24.925 42.936
O 22.306 26.392 41.962
C 21.542 25.258 41.379
H 22.197 24.777 40.639
H 21.242 24.539 42.189
H 20.629 25.737 40.84 
C 22.32  30.876 35.93 
H 23.167 30.589 35.275
H 22.39  31.901 36.241
C 21.003 30.692 35.171
H 21.052 29.983 34.393
C 19.822 31.256 35.457
C 19.626 32.235 36.619
H 20.368 32.05  37.368
H 19.778 33.192 36.201
H 18.671 32.14  37.051
C 18.548 30.956 34.677
H 19.033 30.648 33.71 
H 17.997 31.92  34.456
C 17.593 29.774 35.051
H 16.643 30.111 35.406
H 18.145 29.201 35.819
C 17.472 28.795 33.905
H 18.362 28.117 33.891
H 17.404 29.154 32.879
C 16.351 27.771 34.224
H 16.273 27.474 35.235
C 16.552 26.366 33.599
H 15.794 25.677 34.105
H 16.367 26.359 32.533
H 17.573 25.997 33.836
C 14.989 28.333 33.815
H 14.797 29.312 34.307
H 14.321 27.591 34.214
C 14.735 28.616 32.256
H 15.687 28.651 31.759
H 14.437 29.675 32.154
C 13.698 27.723 31.548
H 12.703 28.252 31.557
H 13.768 26.749 32.103
C 14.118 27.571 30.057
H 15.154 27.319 30.113
C 13.96  28.916 29.238
H 12.906 29.319 29.243
H 14.658 29.645 29.569
H 14.281 28.762 28.213
C 13.323 26.389 29.364
H 12.323 26.681 29.325
H 13.386 25.529 29.964
C 13.787 25.989 27.963
H 14.003 24.911 28.086
H 14.713 26.435 27.642
C 12.725 26.313 26.897
H 12.011 27.083 27.205
H 12.195 25.391 26.778
C 13.127 26.728 25.456
H 13.644 25.911 24.957
C 14.146 27.935 25.394
H 15.082 27.669 25.927
H 14.582 28.102 24.424
H 13.64  28.86  25.792
C 11.99  27.075 24.536
H 12.339 27.307 23.498
H 11.35  26.218 24.507
H 11.425 27.907 24.798
