137

Mg 30.1   31.265 34.216
C 29.022 28.717 32.039
C 32.795 31.626 32.392
H 33.723 31.74  31.766
C 30.903 33.883 36.147
H 31.137 34.589 36.939
C 27.112 30.944 35.969
H 26.122 30.803 36.391
N 30.763 30.35  32.446
C 30.167 29.369 31.593
C 31.015 29.029 30.331
H 31.202 27.994 30.401
C 32.27  29.938 30.605
H 32.3   30.693 29.807
C 31.956 30.645 31.936
C 33.594 29.137 30.572
H 33.635 28.645 31.484
H 33.549 28.546 29.671
H 34.458 29.821 30.374
C 30.157 29.42  29.04 
H 30.096 30.489 29.073
H 29.185 28.91  29.229
C 30.936 29.109 27.779
H 31.654 29.852 27.661
H 31.531 28.262 28.04 
C 30.029 28.709 26.587
O 30.211 29.176 25.445
O 28.965 27.989 26.983
N 31.654 32.493 34.346
C 32.759 32.515 33.495
C 33.775 33.55  33.855
C 33.168 34.192 35.002
C 31.846 33.526 35.209
C 35.091 33.723 33.124
H 35.386 32.939 32.353
H 35.155 34.771 32.685
H 35.864 33.614 33.893
C 33.679 35.31  35.875
H 33.029 35.496 36.706
C 34.837 36.004 35.818
H 35.541 35.853 35.026
H 35.142 36.712 36.631
N 29.147 32.339 35.749
C 29.654 33.392 36.346
C 28.595 33.985 37.174
C 27.558 33.094 37.234
C 27.916 32.075 36.261
C 28.887 35.123 38.093
H 29.527 34.736 38.852
H 29.326 35.973 37.558
H 27.987 35.429 38.493
C 26.321 33.119 38.055
H 26.153 32.128 38.474
H 26.536 33.738 38.971
C 25.087 33.552 37.266
H 25.222 34.577 36.978
H 24.911 32.881 36.34 
H 24.134 33.482 37.847
N 28.437 30.038 34.175
C 27.348 30.    34.967
C 26.51  28.8   34.643
C 27.08  28.262 33.526
C 28.304 29.04  33.266
C 25.342 28.284 35.433
H 24.801 29.046 35.984
H 24.734 27.606 34.749
H 25.779 27.681 36.252
C 26.937 27.241 32.462
O 26.195 26.308 32.327
C 28.099 27.592 31.425
H 27.544 27.958 30.558
C 28.746 26.332 31.186
O 29.57  25.815 31.942
O 28.398 25.856 29.935
C 29.243 24.757 29.362
H 29.242 23.845 29.894
H 28.948 24.567 28.303
H 30.328 24.91  29.252
C 28.081 27.555 25.822
H 28.774 27.018 25.159
H 27.688 28.404 25.331
C 27.023 26.87  26.638
H 26.679 27.37  27.517
C 26.58  25.61  26.465
C 27.222 24.567 25.565
H 27.848 23.918 26.17 
H 26.374 24.021 25.106
H 27.724 25.164 24.831
C 25.566 25.014 27.49 
H 25.473 25.77  28.268
H 25.946 24.195 28.016
C 24.255 24.554 27.018
H 24.14  23.441 26.965
H 24.118 24.959 25.982
C 23.094 25.058 27.933
H 23.482 25.71  28.733
H 22.616 24.202 28.446
C 22.057 26.042 27.183
H 21.686 25.564 26.253
C 22.654 27.425 26.713
H 23.544 27.234 26.122
H 21.963 27.892 26.044
H 22.811 28.245 27.482
C 20.719 26.192 27.971
H 20.338 25.212 27.956
H 20.03  26.873 27.459
C 20.882 26.705 29.437
H 21.133 27.801 29.291
H 21.731 26.354 29.959
C 19.583 26.577 30.156
H 18.768 26.454 29.516
H 19.481 27.571 30.644
C 19.519 25.45  31.266
H 20.376 25.656 31.871
C 19.773 24.07  30.61 
H 19.82  23.492 31.508
H 19.012 23.684 29.882
H 20.782 24.004 30.149
C 18.191 25.409 32.121
H 17.481 24.928 31.396
H 17.779 26.397 32.19 
C 18.135 24.641 33.509
H 18.654 25.3   34.225
H 18.514 23.657 33.315
C 16.771 24.451 34.197
H 16.062 25.025 33.649
H 16.865 24.91  35.196
C 16.289 22.995 34.353
H 17.091 22.5   34.862
C 15.948 22.416 32.934
H 15.745 21.383 33.062
H 15.092 22.892 32.572
H 16.839 22.424 32.288
C 15.216 22.916 35.406
H 14.457 23.549 34.962
H 15.026 21.901 35.571
H 15.544 23.365 36.283
