137

Mg 21.605 31.97  35.468
C 20.776 29.936 38.146
C 18.476 32.164 34.565
H 17.462 32.289 34.215
C 22.702 33.53  32.665
H 23.103 34.004 31.811
C 25.021 31.731 36.481
H 26.056 31.893 36.855
N 19.807 31.152 36.312
C 19.64  30.321 37.367
C 18.15  29.987 37.662
H 18.084 28.88  37.718
C 17.537 30.584 36.337
H 16.731 31.276 36.703
C 18.646 31.378 35.676
C 16.84  29.488 35.491
H 16.289 30.018 34.76 
H 17.564 28.843 34.954
H 16.121 28.932 36.078
C 17.732 30.757 38.908
H 17.887 31.842 38.849
H 18.372 30.35  39.677
C 16.232 30.453 39.363
H 15.612 29.781 38.713
H 16.237 29.948 40.39 
C 15.345 31.762 39.32 
O 15.052 32.456 40.304
O 14.949 32.003 38.066
N 20.731 32.718 33.904
C 19.377 32.812 33.697
C 19.088 33.512 32.465
C 20.343 33.748 31.882
C 21.357 33.359 32.869
C 17.606 33.657 31.935
H 17.726 34.036 30.931
H 17.07  32.67  31.858
H 17.071 34.279 32.655
C 20.627 34.263 30.497
H 21.305 33.678 29.91 
C 20.22  35.512 30.019
H 19.589 36.219 30.557
H 20.506 35.769 28.988
N 23.539 32.359 34.602
C 23.742 33.012 33.435
C 25.19  32.96  33.117
C 25.767 32.637 34.31 
C 24.774 32.271 35.259
C 25.839 33.563 31.795
H 25.759 32.773 31.034
H 25.302 34.517 31.549
H 26.971 33.66  31.921
C 27.242 32.617 34.571
H 27.649 31.662 34.85 
H 27.787 32.773 33.632
C 27.805 33.689 35.464
H 28.804 33.905 35.053
H 27.476 34.697 35.28 
H 27.713 33.356 36.486
N 22.713 31.053 36.967
C 24.046 31.094 37.278
C 24.271 30.243 38.431
C 23.024 29.727 38.826
C 22.079 30.332 37.932
C 25.578 30.015 39.02 
H 25.459 29.646 40.046
H 26.19  29.294 38.471
H 26.1   30.933 38.892
C 22.385 28.865 39.737
O 22.821 28.15  40.613
C 20.794 29.013 39.421
H 20.409 29.462 40.259
C 20.29  27.658 39.254
O 20.489 26.889 38.304
O 19.472 27.343 40.297
C 18.908 26.022 40.126
H 17.995 25.785 40.784
H 18.532 25.717 39.156
H 19.771 25.398 40.555
C 14.157 33.241 37.989
H 14.466 34.033 38.591
H 13.179 32.932 38.425
C 13.97  33.716 36.635
H 13.208 33.168 36.083
C 14.592 34.684 35.915
C 15.795 35.423 36.234
H 16.589 35.215 35.511
H 15.654 36.479 36.122
H 16.085 35.219 37.216
C 14.24  34.909 34.493
H 13.462 34.234 34.05 
H 15.063 34.628 33.802
C 13.7   36.247 34.134
H 13.599 36.942 34.975
H 12.645 36.106 33.881
C 14.353 36.816 32.862
H 13.73  36.446 32.059
H 15.348 36.443 32.58 
C 14.53  38.372 32.893
H 13.551 38.753 33.271
C 14.87  38.954 31.45 
H 15.951 38.881 31.284
H 14.348 38.593 30.574
H 14.58  40.083 31.441
C 15.58  38.99  33.849
H 15.244 38.738 34.876
H 15.353 40.03  33.88 
C 17.083 38.701 33.744
H 17.354 37.847 33.167
H 17.417 38.514 34.7  
C 17.895 39.866 33.162
H 18.371 40.372 34.046
H 17.156 40.612 32.783
C 18.867 39.475 31.944
H 18.195 39.153 31.142
C 19.879 38.318 32.331
H 20.484 38.091 31.454
H 20.478 38.36  33.188
H 19.316 37.416 32.519
C 19.711 40.584 31.33 
H 20.117 40.28  30.467
H 20.455 40.903 32.133
C 18.907 41.842 30.966
H 18.909 42.417 31.875
H 17.869 41.558 30.809
C 19.383 42.731 29.755
H 18.649 42.642 28.943
H 20.344 42.347 29.393
C 19.393 44.239 30.237
H 19.804 44.256 31.222
C 17.973 44.81  30.137
H 18.034 45.863 30.25 
H 17.582 44.73  29.119
H 17.291 44.431 30.885
C 20.444 45.007 29.407
H 20.288 46.058 29.519
H 21.415 44.75  29.753
H 20.383 44.614 28.311
