137

Mg 28.292 31.059 33.82 
C 29.096 27.765 32.929
C 26.523 31.349 30.9  
H 26.064 31.381 29.924
C 27.311 34.102 34.867
H 27.037 35.108 35.17 
C 29.934 30.493 36.924
H 30.56  30.35  37.788
N 27.988 29.765 32.095
C 28.417 28.478 31.897
C 27.989 27.924 30.51 
H 28.881 27.604 29.955
C 27.24  29.093 29.836
H 26.151 28.822 29.781
C 27.25  30.176 31.018
C 27.941 29.609 28.559
H 29.036 29.393 28.568
H 27.402 29.077 27.714
H 27.952 30.73  28.515
C 27.155 26.646 30.649
H 26.203 26.876 31.159
H 27.634 25.891 31.223
C 26.926 26.084 29.246
H 25.878 26.013 29.011
H 27.388 26.735 28.444
C 27.442 24.746 28.981
O 28.497 24.466 28.305
O 26.628 23.829 29.512
N 27.053 32.518 33.024
C 26.444 32.446 31.813
C 25.703 33.676 31.596
C 25.897 34.522 32.761
C 26.788 33.698 33.628
C 24.922 34.055 30.334
H 25.2   35.04  29.944
H 25.083 33.299 29.621
H 23.917 34.028 30.758
C 25.41  35.902 33.122
H 25.688 36.353 34.145
C 24.795 36.726 32.238
H 24.492 36.444 31.219
H 24.627 37.764 32.503
N 28.658 32.174 35.511
C 28.096 33.377 35.742
C 28.486 33.864 37.076
C 29.312 32.869 37.587
C 29.365 31.774 36.662
C 28.099 35.188 37.742
H 27.191 35.19  38.291
H 28.84  35.496 38.502
H 27.866 36.013 37.099
C 30.078 32.953 38.917
H 31.101 32.719 38.763
H 30.154 33.965 39.308
C 29.477 32.039 40.003
H 30.171 32.045 40.83 
H 28.509 32.486 40.325
H 29.179 30.993 39.807
N 29.301 29.543 34.772
C 29.934 29.457 36.014
C 30.595 28.18  36.119
C 30.234 27.466 34.966
C 29.424 28.343 34.191
C 31.616 27.748 37.138
H 31.77  26.663 36.958
H 32.506 28.397 37.092
H 31.114 27.915 38.112
C 30.475 26.22  34.264
O 31.151 25.224 34.486
C 29.706 26.361 32.953
H 29.01  25.568 32.969
C 30.73  26.068 31.957
O 31.692 26.759 31.678
O 30.332 24.906 31.331
C 31.091 24.398 30.158
H 31.039 23.347 29.733
H 30.766 25.063 29.381
H 32.132 24.55  30.272
C 26.824 22.435 29.104
H 27.823 22.121 29.412
H 26.631 22.233 28.027
C 25.753 21.641 29.822
H 24.837 22.226 30.105
C 25.711 20.398 30.358
C 26.764 19.357 30.263
H 27.027 19.097 31.246
H 26.493 18.472 29.693
H 27.722 19.61  29.767
C 24.47  19.932 31.06 
H 23.821 20.729 31.411
H 24.814 19.434 31.933
C 23.574 18.948 30.269
H 23.774 17.946 30.597
H 23.966 18.98  29.207
C 22.079 19.286 30.232
H 21.952 20.222 29.729
H 21.826 19.49  31.212
C 21.273 18.206 29.441
H 21.634 18.136 28.34 
C 19.876 18.798 29.21 
H 19.254 18.023 28.636
H 19.437 19.039 30.126
H 20.034 19.676 28.625
C 21.209 16.803 30.138
H 22.207 16.429 30.344
H 20.817 16.185 29.362
C 20.201 16.594 31.36 
H 19.701 15.673 31.219
H 19.456 17.312 31.306
C 20.943 16.782 32.713
H 20.426 17.513 33.388
H 21.979 17.134 32.553
C 20.94  15.497 33.612
H 19.938 15.067 33.547
C 21.095 15.961 35.089
H 21.082 15.13  35.704
H 22.079 16.479 35.238
H 20.244 16.691 35.369
C 22.014 14.459 33.156
H 22.328 13.894 34.06 
H 22.975 14.932 32.827
C 21.631 13.435 32.111
H 22.06  13.889 31.154
H 20.513 13.438 31.931
C 22.067 11.982 32.456
H 21.377 11.261 32.125
H 22.216 11.912 33.497
C 23.413 11.483 31.832
H 24.186 12.212 32.086
C 23.577 11.264 30.335
H 24.647 11.32  30.021
H 23.141 10.285 30.029
H 22.948 12.035 29.864
C 23.719 10.209 32.497
H 24.673  9.804 32.205
H 23.67  10.209 33.578
H 22.972  9.487 32.035
