137

Mg 27.593 26.767 44.7  
C 24.94  25.169 43.111
C 29.02  27.238 41.534
H 29.469 27.482 40.568
C 29.784 28.798 46.048
H 30.531 29.604 46.412
C 25.914 26.419 47.735
H 25.423 26.302 48.682
N 27.034 26.315 42.61 
C 25.921 25.617 42.233
C 25.912 25.443 40.686
H 25.828 24.398 40.415
C 27.33  25.96  40.179
H 27.293 26.797 39.446
C 27.828 26.567 41.49 
C 28.269 24.845 39.564
H 28.81  24.331 40.359
H 27.735 24.027 39.076
H 28.943 25.214 38.759
C 24.754 26.136 39.993
H 24.897 27.291 40.096
H 23.848 25.829 40.493
C 24.426 25.672 38.583
H 25.352 25.49  38.112
H 23.904 24.736 38.617
C 23.606 26.53  37.639
O 24.103 27.09  36.685
O 22.277 26.599 37.993
N 29.205 27.718 43.942
C 29.673 27.776 42.625
C 30.792 28.674 42.542
C 31.056 29.12  43.903
C 29.997 28.493 44.692
C 31.553 29.129 41.288
H 32.569 28.863 41.423
H 31.263 28.582 40.332
H 31.313 30.202 41.302
C 32.101 30.086 44.439
H 32.702 29.748 45.226
C 32.38  31.286 43.88 
H 31.82  31.704 43.082
H 33.214 31.918 44.32 
N 27.807 27.471 46.563
C 28.77  28.305 46.933
C 28.707 28.541 48.305
C 27.519 27.946 48.777
C 27.059 27.193 47.682
C 29.681 29.298 49.072
H 30.736 28.88  48.942
H 29.746 30.324 48.677
H 29.414 29.424 50.164
C 26.877 28.196 50.123
H 26.137 27.415 50.238
H 27.582 28.051 50.966
C 26.015 29.464 50.175
H 25.623 29.757 51.125
H 26.66  30.261 49.821
H 25.143 29.347 49.535
N 25.881 25.916 45.363
C 25.339 25.796 46.635
C 24.052 25.122 46.54 
C 23.853 24.847 45.18 
C 24.985 25.309 44.508
C 23.136 24.68  47.725
H 23.53  25.076 48.667
H 22.173 25.    47.478
H 23.258 23.646 47.727
C 22.987 24.24  44.226
O 21.873 23.706 44.341
C 23.634 24.412 42.821
H 22.899 24.935 42.224
C 23.934 23.09  42.444
O 25.01  22.496 42.603
O 22.939 22.561 41.692
C 23.156 21.166 41.329
H 23.45  20.536 42.201
H 22.266 20.751 40.923
H 24.008 21.134 40.611
C 21.462 27.55  37.257
H 21.465 27.319 36.156
H 21.843 28.564 37.53 
C 20.053 27.299 37.691
H 19.921 27.138 38.742
C 18.898 27.239 37.021
C 18.751 27.403 35.509
H 19.571 27.934 35.068
H 18.839 26.315 35.171
H 17.864 27.897 35.212
C 17.621 27.188 37.752
H 17.788 26.713 38.719
H 16.856 26.651 37.26 
C 17.004 28.545 37.991
H 17.104 29.093 37.063
H 17.516 29.035 38.838
C 15.455 28.49  38.368
H 15.283 28.731 39.39 
H 15.153 27.431 38.278
C 14.49  29.32  37.439
H 14.685 30.345 37.637
C 13.05  29.231 37.92 
H 12.446 29.853 37.252
H 12.62  28.213 37.942
H 12.979 29.652 38.889
C 14.681 29.05  35.899
H 15.703 29.34  35.632
H 14.012 29.583 35.291
C 14.562 27.607 35.366
H 14.331 26.919 36.141
H 15.573 27.282 35.043
C 13.55  27.271 34.261
H 14.235 26.85  33.481
H 13.197 28.213 33.817
C 12.322 26.347 34.541
H 11.858 26.543 35.518
C 12.808 24.877 34.593
H 13.401 24.673 33.734
H 13.46  24.8   35.494
H 12.082 24.099 34.661
C 11.298 26.487 33.418
H 11.735 26.039 32.502
H 11.081 27.564 33.182
C  9.8   26.141 33.756
H  9.142 26.985 33.557
H  9.777 26.069 34.815
C  9.241 24.9   33.068
H  9.261 24.169 33.897
H  9.985 24.513 32.264
C  7.749 25.124 32.546
H  7.752 26.009 31.981
C  6.841 25.211 33.768
H  7.149 26.04  34.408
H  5.837 25.42  33.407
H  6.882 24.226 34.262
C  7.467 23.969 31.511
H  6.428 23.995 31.186
H  8.154 24.243 30.687
H  7.759 22.996 31.897
