137

Mg 22.865 24.069 41.441
C 20.901 21.274 41.501
C 23.285 23.653 38.139
H 23.258 23.639 36.993
C 24.305 27.152 41.299
H 24.805 28.099 41.267
C 22.595 24.292 44.783
H 22.316 24.403 45.781
N 22.207 22.682 40.016
C 21.364 21.661 40.234
C 21.112 20.86  38.954
H 21.585 19.816 39.143
C 22.041 21.515 37.925
H 21.363 22.013 37.202
C 22.558 22.669 38.804
C 23.045 20.525 37.294
H 23.361 19.881 38.087
H 22.547 19.847 36.525
H 23.861 21.161 36.93 
C 19.607 20.792 38.544
H 19.314 21.841 38.285
H 19.059 20.681 39.51 
C 19.307 19.746 37.437
H 20.21  19.223 37.223
H 18.665 18.992 37.746
C 18.749 20.075 36.068
O 18.971 21.146 35.486
O 17.907 19.06  35.661
N 23.618 25.254 39.983
C 23.703 24.922 38.655
C 24.426 25.993 37.926
C 24.692 27.025 38.79 
C 24.133 26.462 40.085
C 24.851 25.854 36.492
H 25.491 26.718 36.224
H 25.475 24.994 36.4  
H 23.89  25.808 36.008
C 25.373 28.312 38.602
H 26.116 28.679 39.329
C 25.212 29.173 37.547
H 24.551 28.895 36.712
H 25.763 30.128 37.44 
N 23.36  25.486 42.825
C 23.895 26.72  42.546
C 24.261 27.442 43.791
C 23.769 26.61  44.806
C 23.274 25.373 44.177
C 25.016 28.754 43.823
H 25.174 29.155 44.793
H 25.993 28.645 43.243
H 24.414 29.459 43.278
C 23.741 26.978 46.331
H 24.373 26.296 46.894
H 24.155 27.998 46.453
C 22.354 27.03  46.968
H 22.64  27.536 47.927
H 21.812 27.831 46.425
H 21.975 26.031 47.104
N 22.063 22.962 42.865
C 21.925 23.244 44.191
C 21.003 22.324 44.827
C 20.632 21.501 43.743
C 21.252 21.945 42.651
C 20.637 22.351 46.294
H 19.923 21.599 46.501
H 21.58  22.125 46.854
H 20.2   23.325 46.55 
C 19.84  20.347 43.495
O 19.205 19.568 44.233
C 19.955 20.145 41.935
H 18.953 20.124 41.623
C 20.566 18.83  41.619
O 21.749 18.659 41.5  
O 19.606 17.932 41.149
C 20.205 16.656 40.712
H 20.9   16.809 39.933
H 20.751 16.249 41.536
H 19.425 15.956 40.404
C 17.233 19.415 34.372
H 18.018 19.603 33.615
H 16.7   20.38  34.512
C 16.322 18.315 34.025
H 15.739 17.927 34.892
C 16.185 17.626 32.876
C 16.711 18.053 31.524
H 17.339 18.944 31.602
H 17.272 17.285 31.046
H 15.81  18.356 30.906
C 15.075 16.612 32.791
H 14.955 16.062 33.685
H 15.361 15.914 32.015
C 13.661 17.253 32.627
H 13.747 18.323 32.784
H 13.072 16.819 33.454
C 13.124 17.036 31.162
H 13.777 16.507 30.543
H 13.08  18.049 30.661
C 11.697 16.421 31.121
H 11.689 15.613 31.86 
C 11.517 15.782 29.694
H 10.542 15.353 29.759
H 11.633 16.539 28.957
H 12.262 15.002 29.535
C 10.53  17.467 31.54 
H 10.551 17.858 32.578
H  9.68  16.746 31.571
C 10.296 18.68  30.628
H 11.173 18.845 29.965
H 10.189 19.546 31.16 
C  9.04  18.496 29.686
H  8.303 19.237 30.038
H  8.622 17.514 29.836
C  9.243 18.832 28.192
H  9.855 18.035 27.833
C  9.858 20.304 27.957
H  9.249 21.107 28.265
H 10.867 20.403 28.337
H 10.094 20.453 26.887
C  7.997 18.611 27.306
H  7.255 19.463 27.459
H  7.609 17.694 27.756
C  8.18  18.426 25.759
H  9.15  18.137 25.535
H  8.007 19.36  25.288
C  7.236 17.331 25.19 
H  6.772 16.68  25.961
H  7.742 16.678 24.488
C  6.028 17.932 24.303
H  5.438 18.587 24.914
C  5.021 16.884 23.864
H  5.579 16.285 23.191
H  4.675 16.254 24.666
H  4.223 17.368 23.337
C  6.516 18.677 23.074
H  5.705 18.779 22.324
H  7.085 19.603 23.291
H  7.263 18.139 22.524
