137

Mg 28.087 30.905 32.954
C 27.658 27.679 31.863
C 28.874 31.739 29.767
H 29.167 31.945 28.748
C 28.656 34.103 34.03 
H 28.952 35.065 34.419
C 27.68  29.805 36.185
H 27.624 29.424 37.208
N 27.98  29.891 31.075
C 27.807 28.567 30.822
C 27.739 28.286 29.287
H 28.318 27.47  29.118
C 28.345 29.556 28.709
H 27.558 29.919 28.014
C 28.33  30.514 29.886
C 29.739 29.387 27.93 
H 30.523 29.105 28.606
H 29.641 28.726 27.106
H 29.756 30.337 27.436
C 26.279 27.96  28.729
H 25.686 28.857 28.757
H 25.945 27.231 29.433
C 26.162 27.325 27.349
H 25.164 27.545 26.959
H 26.941 27.696 26.725
C 26.412 25.897 27.21 
O 27.558 25.486 27.186
O 25.307 25.091 27.125
N 28.674 32.652 32.071
C 28.974 32.8   30.743
C 29.548 34.027 30.505
C 29.272 34.793 31.627
C 28.81  33.876 32.615
C 30.096 34.472 29.23 
H 30.636 35.467 29.341
H 30.757 33.724 28.868
H 29.32  34.555 28.511
C 29.634 36.227 31.927
H 30.596 36.642 31.678
C 28.873 37.088 32.643
H 27.959 36.753 33.177
H 29.204 38.15  32.914
N 28.08  31.77  34.879
C 28.318 33.202 35.111
C 28.195 33.428 36.571
C 28.032 32.171 37.106
C 27.927 31.2   36.017
C 28.259 34.818 37.209
H 27.875 35.615 36.48 
H 27.758 34.822 38.149
H 29.299 34.952 37.326
C 27.802 31.904 38.542
H 28.239 30.915 38.776
H 28.377 32.659 39.096
C 26.412 31.688 39.065
H 25.703 32.437 38.7  
H 26.06  30.676 38.792
H 26.389 31.765 40.113
N 27.794 29.199 33.857
C 27.653 28.897 35.192
C 27.725 27.448 35.36 
C 27.674 26.946 34.048
C 27.673 28.004 33.217
C 27.796 26.67  36.624
H 27.532 27.157 37.591
H 27.1   25.826 36.455
H 28.821 26.292 36.627
C 27.576 25.72  33.19 
O 27.556 24.548 33.543
C 27.354 26.218 31.797
H 26.324 26.05  31.438
C 28.243 25.369 30.982
O 29.424 25.535 30.735
O 27.619 24.255 30.448
C 28.463 23.189 29.845
H 28.875 23.622 28.959
H 29.182 22.822 30.538
H 27.916 22.322 29.508
C 25.669 23.67  26.866
H 26.04  23.257 27.731
H 26.469 23.499 26.092
C 24.451 22.926 26.595
H 23.844 22.814 27.541
C 23.958 22.42  25.474
C 24.694 22.497 24.12 
H 25.019 23.502 23.865
H 25.568 21.833 24.164
H 23.984 22.198 23.291
C 22.683 21.776 25.423
H 22.467 21.204 26.327
H 22.66  21.12  24.574
C 21.501 22.784 25.2  
H 20.764 22.302 24.575
H 21.76  23.654 24.682
C 20.975 23.224 26.541
H 20.911 24.319 26.462
H 21.717 22.921 27.289
C 19.532 22.731 26.893
H 19.057 22.381 25.949
C 18.695 23.851 27.463
H 19.035 24.212 28.409
H 18.723 24.714 26.808
H 17.718 23.49  27.523
C 19.535 21.483 27.96 
H 20.005 20.67  27.444
H 18.474 21.17  27.912
C 19.96  21.787 29.424
H 19.224 22.329 29.959
H 20.829 22.457 29.263
C 20.323 20.499 30.245
H 19.804 19.562 29.756
H 19.832 20.633 31.206
C 21.79  20.093 30.502
H 22.216 20.911 31.028
C 22.503 19.963 29.178
H 22.006 19.337 28.558
H 22.581 20.969 28.698
H 23.558 19.64  29.296
C 22.128 18.77  31.265
H 23.185 18.536 31.197
H 21.627 18.046 30.61 
C 21.74  18.803 32.68 
H 21.511 19.813 33.022
H 22.433 18.418 33.37 
C 20.444 17.972 32.924
H 20.878 17.103 33.361
H 19.94  17.75  31.989
C 19.427 18.586 33.958
H 19.081 19.559 33.608
C 20.033 18.936 35.336
H 19.326 19.367 36.079
H 20.67  18.012 35.652
H 20.745 19.717 35.071
C 18.199 17.704 34.164
H 18.424 16.671 34.563
H 17.627 18.239 34.917
H 17.82  17.551 33.214
