137

Mg 29.441 28.514 33.333
C 27.409 26.176 31.787
C 31.592 28.24  30.681
H 32.206 28.181 29.835
C 31.759 30.309 34.987
H 32.481 30.915 35.516
C 27.587 28.126 36.171
H 26.996 28.034 37.09 
N 29.469 27.506 31.396
C 28.549 26.597 31.019
C 28.816 26.252 29.546
H 28.687 25.156 29.362
C 30.248 26.633 29.303
H 30.352 27.28  28.412
C 30.465 27.535 30.505
C 31.202 25.427 29.065
H 31.108 24.728 29.828
H 30.949 24.931 28.11 
H 32.22  25.841 28.886
C 27.768 27.088 28.703
H 27.931 28.139 28.751
H 26.891 26.94  29.285
C 27.611 26.589 27.277
H 27.798 27.423 26.602
H 28.337 25.84  26.993
C 26.222 26.094 26.77 
O 25.879 26.005 25.613
O 25.312 25.845 27.826
N 31.324 29.193 32.917
C 32.054 28.99  31.78 
C 33.28  29.681 31.841
C 33.32  30.45  33.015
C 32.073 29.99  33.644
C 34.365 29.557 30.768
H 34.931 30.472 30.744
H 35.061 28.73  30.904
H 33.897 29.387 29.749
C 34.325 31.389 33.534
H 33.844 32.175 34.109
C 35.668 31.4   33.275
H 36.108 30.592 32.691
H 36.382 32.214 33.562
N 29.52  29.227 35.27 
C 30.584 29.987 35.727
C 30.261 30.342 37.125
C 29.076 29.76  37.433
C 28.661 29.022 36.246
C 31.299 31.012 37.962
H 31.142 32.065 37.929
H 31.234 30.623 38.97 
H 32.252 30.643 37.643
C 28.354 29.861 38.744
H 28.221 28.862 39.082
H 28.975 30.355 39.457
C 26.993 30.594 38.595
H 26.268 30.365 39.305
H 27.17  31.656 38.774
H 26.48  30.448 37.649
N 27.773 27.574 33.849
C 27.113 27.43  35.069
C 26.006 26.538 34.967
C 26.107 26.019 33.672
C 27.212 26.649 33.068
C 25.124 26.138 36.088
H 24.729 27.083 36.487
H 24.244 25.607 35.661
H 25.596 25.463 36.81 
C 25.472 25.086 32.802
O 24.484 24.352 32.995
C 26.351 25.096 31.461
H 25.782 25.225 30.558
C 26.899 23.716 31.233
O 27.476 23.023 32.075
O 26.916 23.505 29.886
C 27.374 22.18  29.455
H 28.47  22.063 29.567
H 26.892 21.356 30.   
H 27.03  22.159 28.434
C 23.915 25.614 27.34 
H 23.8   24.816 26.538
H 23.808 26.598 26.925
C 22.919 25.404 28.508
H 22.304 26.248 28.777
C 22.67  24.239 29.191
C 23.497 22.963 28.925
H 23.9   22.414 29.829
H 22.766 22.227 28.58 
H 24.227 22.999 28.194
C 21.572 24.067 30.24 
H 21.028 24.976 30.265
H 22.008 23.824 31.217
C 20.439 23.068 29.883
H 20.803 22.133 30.193
H 20.407 23.1   28.812
C 19.103 23.566 30.514
H 19.362 24.114 31.39 
H 18.527 22.72  30.898
C 18.196 24.416 29.475
H 18.913 25.104 29.049
C 17.172 25.263 30.149
H 16.632 24.579 30.81 
H 17.581 26.088 30.789
H 16.46  25.756 29.465
C 17.639 23.613 28.267
H 18.451 23.406 27.636
H 16.954 24.229 27.709
C 16.637 22.463 28.612
H 15.731 22.664 28.068
H 16.359 22.334 29.698
C 17.31  21.061 28.196
H 18.362 21.17  27.943
H 16.8   20.759 27.156
C 17.269 19.921 29.245
H 17.557 20.411 30.149
C 18.133 18.715 28.842
H 18.031 17.852 29.501
H 18.14  18.419 27.817
H 19.142 18.953 29.092
C 15.846 19.399 29.512
H 15.498 18.592 28.84 
H 15.165 20.26  29.352
C 15.497 18.933 30.958
H 14.803 19.667 31.379
H 16.383 18.955 31.587
C 14.9   17.504 31.009
H 15.471 16.975 31.773
H 15.047 16.853 30.095
C 13.356 17.361 31.434
H 13.215 17.369 32.474
C 12.871 15.943 31.086
H 12.634 15.957 30.025
H 13.712 15.283 31.289
H 12.022 15.826 31.712
C 12.395 18.392 30.934
H 12.286 18.177 29.88 
H 11.468 18.249 31.463
H 12.692 19.402 31.033
