137

Mg 30.544 33.03  35.022
C 28.154 33.02  37.574
C 27.883 33.204 32.692
H 27.    33.204 31.987
C 32.685 33.954 32.574
H 33.37  34.041 31.779
C 32.985 33.437 37.429
H 33.743 33.479 38.2  
N 28.32  33.062 35.111
C 27.584 32.991 36.269
C 26.105 32.737 35.923
H 25.996 31.705 36.226
C 26.004 32.833 34.38 
H 25.496 33.77  34.048
C 27.489 33.025 33.986
C 25.403 31.633 33.685
H 25.512 31.703 32.611
H 25.827 30.728 34.056
H 24.31  31.59  33.849
C 25.075 33.618 36.69 
H 25.262 34.702 36.549
H 25.186 33.399 37.743
C 23.501 33.389 36.296
H 23.535 32.376 35.705
H 22.911 33.12  37.18 
C 22.829 34.338 35.399
O 23.245 35.457 35.006
O 21.664 33.792 35.041
N 30.355 33.411 32.915
C 29.187 33.371 32.178
C 29.571 33.58  30.816
C 30.955 33.671 30.752
C 31.449 33.694 32.099
C 28.505 33.688 29.744
H 28.988 33.378 28.78 
H 27.693 32.966 29.885
H 28.024 34.693 29.571
C 31.897 33.774 29.599
H 32.775 33.209 29.712
C 31.633 34.524 28.454
H 30.64  35.033 28.471
H 32.248 34.461 27.569
N 32.522 33.515 35.027
C 33.281 33.792 33.9  
C 34.659 33.973 34.267
C 34.7   33.872 35.658
C 33.395 33.563 36.083
C 35.68  34.281 33.295
H 35.718 33.36  32.631
H 35.444 35.103 32.581
H 36.624 34.566 33.738
C 35.892 34.09  36.584
H 35.891 33.364 37.403
H 36.766 34.026 36.008
C 35.851 35.511 37.341
H 36.741 35.835 37.789
H 35.623 36.312 36.605
H 35.042 35.463 38.034
N 30.617 32.941 36.999
C 31.64 33.29 37.84
C 31.216 33.323 39.235
C 29.871 33.049 39.163
C 29.529 33.035 37.793
C 32.073 33.586 40.432
H 31.429 33.396 41.261
H 32.758 32.824 40.547
H 32.533 34.602 40.482
C 28.741 32.942 39.966
O 28.63  32.843 41.172
C 27.489 32.809 38.959
H 26.743 33.53  39.25 
C 26.899 31.493 39.188
O 27.513 30.487 39.005
O 25.663 31.44  39.702
C 25.322 30.098 40.356
H 25.777 30.174 41.327
H 24.2   30.149 40.557
H 25.494 29.158 39.764
C 20.823 34.584 34.016
H 21.406 34.737 33.068
H 20.523 35.488 34.437
C 19.658 33.693 33.695
H 18.834 34.042 34.262
C 19.603 32.72  32.74 
C 20.817 32.345 31.852
H 20.788 31.264 31.687
H 20.645 32.875 30.938
H 21.751 32.588 32.326
C 18.42  31.802 32.67 
H 17.753 31.941 33.544
H 18.789 30.74  32.681
C 17.565 32.015 31.366
H 17.804 33.061 31.048
H 16.439 32.027 31.667
C 17.857 31.003 30.261
H 18.926 30.678 30.436
H 17.925 31.597 29.365
C 17.034 29.66  30.294
H 17.165 29.16  31.177
C 17.316 28.627 29.193
H 18.326 28.239 29.452
H 16.658 27.804 29.099
H 17.282 29.159 28.237
C 15.422 29.961 30.233
H 15.121 30.448 31.195
H 14.963 28.919 30.246
C 14.865 30.94  29.152
H 15.641 31.471 28.504
H 14.329 31.61  29.821
C 14.037 30.246 28.076
H 14.039 29.173 28.184
H 14.394 30.479 27.067
C 12.491 30.758 27.955
H 12.614 31.754 27.956
C 11.762 30.333 29.199
H 11.652 29.25  29.103
H 12.421 30.585 30.045
H 10.823 30.791 29.392
C 11.784 30.401 26.601
H 11.403 29.389 26.606
H 12.522 30.412 25.817
C 10.724 31.455 26.123
H 10.85  31.632 25.084
H 10.931 32.37  26.721
C  9.399 30.834 26.416
H  9.416 29.902 26.977
H  8.888 30.539 25.503
C  8.369 31.778 27.126
H  8.829 32.281 28.059
C  7.176 30.966 27.621
H  7.492 30.226 28.322
H  6.521 31.629 28.135
H  6.749 30.432 26.806
C  7.926 32.828 26.12 
H  8.825 33.399 25.784
H  7.426 32.372 25.277
H  7.335 33.578 26.496
