137

Mg 23.959 30.695 31.888
C 22.963 27.712 33.359
C 20.635 31.368 31.188
H 19.589 31.54  30.993
C 24.992 33.434 30.365
H 25.391 34.269 29.725
C 27.249 29.849 32.691
H 28.22  29.611 33.153
N 22.076 29.661 32.225
C 21.892 28.494 32.987
C 20.336 28.181 33.154
H 20.174 27.178 32.782
C 19.732 29.247 32.101
H 19.037 29.847 32.759
C 20.881 30.144 31.733
C 19.074 28.69  30.845
H 19.138 29.294 29.961
H 19.649 27.836 30.577
H 18.037 28.355 31.02 
C 20.027 28.165 34.701
H 20.46  29.017 35.177
H 20.5   27.232 35.04 
C 18.594 28.26  35.066
H 17.929 28.229 34.265
H 18.275 27.471 35.758
C 18.138 29.487 35.775
O 18.351 29.633 36.963
O 17.423 30.227 34.948
N 22.938 32.204 31.014
C 21.559 32.365 30.794
C 21.333 33.596 30.08 
C 22.616 34.134 29.795
C 23.567 33.211 30.432
C 19.981 34.227 29.71 
H 19.253 33.749 30.303
H 20.    35.21  30.068
H 19.72  34.202 28.633
C 22.988 35.422 29.201
H 23.899 35.894 29.601
C 22.27  35.99  28.218
H 21.48  35.342 27.808
H 22.571 36.934 27.716
N 25.808 31.571 31.583
C 26.01  32.73  31.014
C 27.43  33.066 31.09 
C 28.074 31.997 31.634
C 27.036 31.045 31.957
C 27.975 34.347 30.597
H 27.288 34.888 29.987
H 28.014 34.917 31.518
H 28.971 34.337 30.096
C 29.56  31.824 31.889
H 29.859 30.777 31.909
H 30.115 32.419 31.134
C 29.971 32.476 33.22 
H 29.562 32.052 34.13 
H 31.077 32.439 33.461
H 29.687 33.539 33.175
N 24.966 29.155 32.83 
C 26.266 28.94  33.009
C 26.434 27.744 33.69 
C 25.171 27.17  33.787
C 24.33  28.045 33.231
C 27.683 27.109 34.253
H 27.366 26.385 35.024
H 28.301 26.594 33.505
H 28.241 27.981 34.618
C 24.4   26.058 34.325
O 24.709 25.109 35.03 
C 22.863 26.369 34.077
H 22.328 26.361 34.992
C 22.354 25.229 33.384
O 22.767 24.782 32.325
O 21.249 24.752 33.95 
C 20.611 23.607 33.274
H 21.339 22.873 32.956
H 19.921 23.037 33.948
H 20.046 24.049 32.5  
C 16.666 31.209 35.642
H 17.269 32.087 35.889
H 16.058 30.8   36.432
C 15.644 31.664 34.632
H 14.839 30.982 34.41 
C 15.799 32.717 33.792
C 17.11  33.492 33.773
H 17.15  34.084 34.712
H 17.969 32.845 33.79 
H 17.294 34.079 32.862
C 14.768 33.301 32.861
H 14.008 32.562 32.61 
H 15.252 33.64  31.925
C 14.079 34.494 33.495
H 14.649 34.964 34.249
H 13.175 34.083 33.992
C 13.662 35.575 32.417
H 12.61  35.804 32.498
H 13.862 35.302 31.388
C 14.295 37.001 32.502
H 14.156 37.401 33.546
C 13.487 38.065 31.738
H 14.08  38.971 31.915
H 13.494 37.858 30.723
H 12.428 38.266 32.01 
C 15.849 36.949 32.312
H 16.218 36.215 32.905
H 16.27  37.9   32.689
C 16.276 36.709 30.843
H 15.42  36.561 30.184
H 16.889 35.806 30.838
C 17.138 37.875 30.293
H 18.092 37.428 29.914
H 17.447 38.562 31.131
C 16.524 38.733 29.169
H 15.494 38.927 29.44 
C 16.425 37.838 27.964
H 16.008 36.832 28.202
H 15.855 38.353 27.166
H 17.409 37.734 27.591
C 17.308 39.966 28.739
H 16.915 40.376 27.792
H 18.329 39.56  28.582
C 17.268 41.085 29.886
H 16.525 40.732 30.654
H 16.792 42.055 29.537
C 18.613 41.373 30.538
H 19.36  41.279 29.757
H 18.718 40.588 31.267
C 18.78  42.74  31.259
H 18.013 42.861 32.059
C 18.777 43.93  30.255
H 19.613 43.725 29.592
H 17.848 43.933 29.615
H 18.859 44.923 30.709
C 20.072 42.697 32.042
H 20.203 43.725 32.453
H 19.9   41.94  32.864
H 20.924 42.451 31.466
