137

Mg 21.631 17.69  27.733
C 22.373 17.554 24.335
C 24.835 18.694 28.245
H 25.791 19.101 28.524
C 21.211 17.007 30.965
H 20.941 16.85  32.029
C 18.549 16.449 26.926
H 17.526 16.108 26.671
N 23.32  18.221 26.432
C 23.379 18.12  25.087
C 24.708 18.723 24.47 
H 25.236 18.032 23.877
C 25.474 18.97  25.817
H 25.708 20.036 26.034
C 24.434 18.645 26.908
C 26.745 18.115 25.917
H 26.616 17.062 25.877
H 27.453 18.589 25.22 
H 27.235 18.325 26.894
C 24.556 19.978 23.585
H 23.772 20.57  24.076
H 24.102 19.717 22.672
C 25.725 20.854 23.278
H 26.645 20.357 23.57 
H 25.681 20.934 22.157
C 25.624 22.36  23.559
O 26.267 23.277 23.04 
O 24.608 22.681 24.498
N 22.862 17.849 29.328
C 24.177 18.277 29.365
C 24.769 18.077 30.684
C 23.698 17.577 31.453
C 22.531 17.41  30.589
C 26.173 18.239 31.015
H 26.542 17.214 31.045
H 26.719 18.909 30.377
H 26.214 18.656 32.028
C 23.709 17.213 32.873
H 22.798 17.292 33.383
C 24.838 16.821 33.517
H 25.728 16.49  33.023
H 24.723 16.52  34.586
N 20.117 16.917 28.799
C 20.12  16.755 30.148
C 18.972 15.97  30.522
C 18.191 15.774 29.336
C 18.942 16.43  28.233
C 18.664 15.546 31.925
H 17.919 14.873 31.961
H 19.493 15.052 32.414
H 18.359 16.363 32.572
C 16.938 14.961 29.119
H 16.982 14.463 28.156
H 16.842 14.22  29.868
C 15.686 15.723 29.147
H 14.835 15.056 29.234
H 15.586 16.488 30.019
H 15.581 16.266 28.17 
N 20.593 17.215 25.995
C 19.286 16.708 25.842
C 19.045 16.478 24.445
C 20.269 16.785 23.787
C 21.174 17.181 24.784
C 17.794 15.917 23.844
H 17.66  16.177 22.773
H 17.747 14.804 24.04 
H 16.925 16.384 24.36 
C 20.915 16.795 22.535
O 20.513 16.374 21.462
C 22.317 17.371 22.808
H 22.56  18.337 22.259
C 23.272 16.339 22.307
O 23.525 15.242 22.811
O 23.673 16.703 21.046
C 24.511 15.688 20.508
H 23.957 14.72  20.617
H 24.683 15.891 19.479
H 25.475 15.591 21.057
C 24.258 24.116 24.647
H 24.455 24.518 23.646
H 24.931 24.657 25.337
C 22.783 24.231 25.048
H 22.623 23.788 26.016
C 21.806 24.967 24.579
C 21.803 25.739 23.281
H 22.156 26.725 23.54 
H 22.486 25.192 22.684
H 20.814 25.788 22.792
C 20.585 25.103 25.431
H 20.604 24.417 26.252
H 19.822 24.691 24.812
C 20.103 26.492 25.892
H 19.086 26.736 25.896
H 20.561 27.207 25.246
C 20.574 26.818 27.345
H 21.264 26.043 27.589
H 19.657 26.797 27.94 
C 21.138 28.237 27.667
H 20.528 29.038 27.056
C 22.596 28.264 27.091
H 23.153 27.431 27.545
H 22.586 28.162 26.042
H 23.087 29.182 27.485
C 21.229 28.778 29.164
H 21.698 29.748 29.289
H 21.853 28.12  29.743
C 19.912 28.853 29.862
H 19.759 27.808 30.137
H 19.12  29.044 29.18 
C 19.877 29.648 31.213
H 19.8   30.682 31.017
H 20.842 29.477 31.648
C 18.839 29.183 32.251
H 18.873 28.112 32.316
C 17.439 29.62  31.704
H 16.71  29.766 32.537
H 17.578 30.605 31.221
H 17.135 28.722 31.16 
C 19.066 29.809 33.609
H 18.695 30.844 33.539
H 20.133 29.794 33.719
C 18.633 28.877 34.766
H 19.521 28.243 34.844
H 17.801 28.178 34.529
C 18.416 29.739 35.943
H 17.377 29.513 36.266
H 18.504 30.84  35.731
C 19.299 29.446 37.25 
H 19.3   28.383 37.423
C 18.707 30.076 38.584
H 17.616 30.061 38.542
H 19.101 29.374 39.353
H 19.    31.103 38.716
C 20.721 29.917 36.997
H 21.381 29.866 37.942
H 21.173 29.219 36.236
H 20.709 30.948 36.591
