137

Mg 20.612 19.926 31.891
C 23.691 18.803 30.858
C 22.249 22.712 33.23 
H 22.791 23.558 33.682
C 17.575 21.351 32.686
H 16.631 21.86  32.793
C 19.102 17.231 30.757
H 18.54  16.392 30.314
N 22.722 20.753 31.789
C 23.853 20.1   31.298
C 25.205 20.795 31.687
H 25.644 19.997 32.199
C 24.684 22.092 32.51 
H 24.837 23.089 32.023
C 23.127 21.919 32.503
C 25.275 22.093 33.941
H 26.352 22.092 33.922
H 25.086 23.045 34.386
H 24.928 21.321 34.555
C 26.16  21.136 30.569
H 25.611 21.832 29.884
H 26.363 20.216 30.002
C 27.542 21.6   31.048
H 27.761 21.438 32.099
H 28.224 20.923 30.546
C 28.015 22.948 30.609
O 28.914 23.135 29.833
O 27.051 23.841 30.937
N 19.988 21.742 32.777
C 20.816 22.771 33.271
C 20.002 23.762 34.01 
C 18.625 23.36  33.821
C 18.73  22.121 33.109
C 20.519 24.933 34.798
H 20.988 24.55  35.792
H 21.375 25.409 34.242
H 19.655 25.604 34.933
C 17.444 24.076 34.27 
H 16.484 24.011 33.688
C 17.234 24.673 35.471
H 18.012 24.647 36.176
H 16.238 25.033 35.692
N 18.649 19.275 31.943
C 17.527 20.057 32.196
C 16.273 19.305 31.927
C 16.785 18.114 31.454
C 18.184 18.139 31.355
C 14.889 19.698 32.264
H 14.454 18.935 32.914
H 14.643 20.591 32.78 
H 14.218 19.567 31.405
C 15.962 16.907 31.089
H 14.985 17.184 30.721
H 16.464 16.199 30.475
C 15.65  16.082 32.343
H 15.141 15.145 32.092
H 16.598 15.844 32.835
H 14.95  16.511 33.086
N 21.191 18.406 30.94 
C 20.453 17.376 30.486
C 21.295 16.438 29.759
C 22.657 16.916 29.995
C 22.486 18.151 30.655
C 20.936 15.206 29.063
H 20.539 14.509 29.717
H 20.252 15.517 28.31 
H 21.832 14.713 28.783
C 24.023 16.684 29.719
O 24.668 15.815 29.103
C 24.831 17.807 30.499
H 25.632 18.136 29.842
C 25.355 17.191 31.721
O 24.8   16.339 32.445
O 26.611 17.651 31.996
C 27.301 16.88  33.026
H 28.302 17.305 33.237
H 26.77  16.828 34.011
H 27.44  15.82  32.689
C 27.212 25.078 30.116
H 27.397 24.865 29.084
H 28.144 25.534 30.466
C 25.925 25.884 30.463
H 25.994 26.75  31.174
C 24.718 25.86  29.787
C 24.353 24.786 28.662
H 23.339 24.369 28.759
H 24.4   25.314 27.694
H 25.18  24.079 28.685
C 23.574 26.712 30.276
H 23.437 26.329 31.302
H 22.646 26.561 29.674
C 23.759 28.181 30.249
H 24.594 28.479 29.592
H 24.072 28.436 31.183
C 22.449 29.029 29.9  
H 21.77  28.273 29.55 
H 22.792 29.528 28.958
C 21.924 30.005 30.942
H 22.633 30.875 30.897
C 21.85  29.378 32.432
H 21.553 28.342 32.347
H 22.879 29.46  32.827
H 21.188 29.957 33.095
C 20.553 30.521 30.488
H 19.947 30.916 31.344
H 19.934 29.676 30.198
C 20.634 31.496 29.346
H 20.308 30.914 28.469
H 21.639 31.706 29.247
C 19.82  32.772 29.53 
H 19.076 32.703 30.313
H 19.278 32.907 28.581
C 20.474 34.132 29.727
H 20.933 34.58  28.845
C 21.69  33.983 30.706
H 21.481 33.299 31.566
H 22.568 33.591 30.186
H 22.02  34.964 31.076
C 19.363 35.136 30.195
H 19.185 34.775 31.24 
H 18.37  34.994 29.756
C 19.681 36.635 30.287
H 20.13  36.912 29.284
H 20.45  36.811 31.036
C 18.381 37.419 30.654
H 18.32  37.52  31.693
H 17.515 36.907 30.294
C 18.33  38.825 30.125
H 19.32  39.271 30.317
C 17.21  39.623 30.899
H 17.417 40.668 30.668
H 16.183 39.275 30.587
H 17.347 39.463 31.977
C 18.125 38.779 28.556
H 17.384 38.085 28.177
H 17.75  39.691 28.141
H 19.11  38.441 28.09 
