137

Mg 20.884 26.947 29.086
C 24.075 25.742 29.63 
C 21.438 29.379 31.44 
H 21.557 30.115 32.251
C 17.761 28.097 28.512
H 16.741 28.495 28.295
C 20.582 24.813 26.501
H 20.456 24.064 25.697
N 22.616 27.534 30.257
C 23.8   26.887 30.343
C 24.747 27.581 31.33 
H 24.966 26.792 32.103
C 23.878 28.677 31.975
H 24.215 29.68  31.812
C 22.514 28.516 31.161
C 23.843 28.552 33.546
H 24.843 28.283 34.039
H 23.445 29.46  33.981
H 23.398 27.658 33.73 
C 26.033 28.107 30.675
H 25.703 28.806 29.957
H 26.472 27.315 30.187
C 27.066 28.787 31.565
H 26.628 28.947 32.537
H 27.761 27.981 31.599
C 27.829 29.973 31.049
O 29.043 30.047 31.042
O 26.936 30.927 30.64 
N 19.79  28.412 29.905
C 20.175 29.358 30.851
C 19.094 30.238 31.172
C 18.01  29.816 30.402
C 18.494 28.724 29.578
C 19.124 31.354 32.203
H 19.747 30.983 33.006
H 19.427 32.187 31.681
H 18.076 31.423 32.58 
C 16.689 30.464 30.458
H 16.758 31.546 30.623
C 15.453 29.909 30.303
H 15.278 28.831 30.214
H 14.618 30.544 30.391
N 19.43  26.596 27.665
C 18.148 27.146 27.648
C 17.35  26.533 26.528
C 18.23  25.715 25.842
C 19.473 25.695 26.68 
C 15.965 26.756 26.207
H 15.523 25.916 25.621
H 15.364 26.779 27.092
H 15.859 27.779 25.695
C 17.89  24.897 24.629
H 17.192 25.521 24.047
H 18.849 24.9   24.039
C 17.449 23.455 24.969
H 17.095 23.337 25.978
H 16.69  23.131 24.293
H 18.357 22.873 24.876
N 21.974 25.44  28.294
C 21.69  24.586 27.295
C 22.731 23.506 27.181
C 23.66  23.954 28.137
C 23.191 25.146 28.753
C 22.845 22.31  26.153
H 21.954 22.384 25.513
H 23.813 22.407 25.52 
H 22.906 21.398 26.741
C 24.928 23.616 28.693
O 25.699 22.616 28.651
C 25.296 24.85  29.621
H 26.147 25.358 29.237
C 25.64  24.239 30.974
O 24.919 23.415 31.54 
O 26.629 25.002 31.566
C 26.74  24.734 33.028
H 26.894 23.695 33.11 
H 27.623 25.197 33.459
H 25.867 25.022 33.738
C 27.357 32.329 30.269
H 27.983 32.335 29.345
H 27.991 32.763 31.071
C 26.102 33.166 30.236
H 25.413 33.148 31.147
C 25.705 34.038 29.332
C 26.494 34.559 28.134
H 27.549 34.25  28.209
H 26.057 34.08  27.222
H 26.45  35.625 28.11 
C 24.453 34.786 29.587
H 23.801 34.392 30.356
H 23.92  34.843 28.566
C 24.604 36.264 30.064
H 25.648 36.594 29.963
H 24.579 36.222 31.117
C 23.691 37.287 29.44 
H 23.056 36.729 28.743
H 24.297 38.011 28.947
C 22.663 37.953 30.434
H 23.11  38.483 31.32 
C 21.665 36.961 31.065
H 21.031 37.437 31.83 
H 21.159 36.354 30.321
H 22.359 36.302 31.575
C 21.886 39.042 29.643
H 21.133 39.294 30.356
H 21.3   38.76  28.809
C 22.785 40.307 29.425
H 22.618 40.699 28.449
H 23.816 40.039 29.515
C 22.494 41.373 30.522
H 23.466 41.676 30.838
H 22.03  41.005 31.435
C 21.867 42.697 30.062
H 22.588 42.924 29.262
C 22.011 43.831 31.13 
H 21.613 43.428 32.045
H 22.976 44.302 31.257
H 21.291 44.576 30.808
C 20.466 42.506 29.537
H 19.861 42.655 30.402
H 20.296 41.471 29.184
C 19.771 43.531 28.594
H 20.426 44.386 28.462
H 18.901 43.96  29.05 
C 19.592 42.868 27.185
H 19.809 41.813 27.043
H 20.196 43.403 26.457
C 18.15  43.099 26.523
H 17.327 42.653 27.015
C 18.081 42.259 25.214
H 17.135 42.501 24.692
H 18.905 42.517 24.572
H 18.243 41.148 25.281
C 17.784 44.557 26.226
H 18.57  45.086 25.716
H 16.994 44.608 25.495
H 17.52  45.11  27.124
