137

Mg 37.824 26.566 33.096
C 34.425 26.691 33.933
C 37.085 24.074 30.812
H 36.771 23.303 30.062
C 41.089 26.042 32.596
H 42.126 25.963 32.463
C 38.375 29.031 35.46 
H 38.57  29.884 36.046
N 35.996 25.524 32.511
C 34.696 25.719 32.967
C 33.709 24.828 32.296
H 33.358 24.092 33.034
C 34.586 24.084 31.271
H 34.223 24.211 30.262
C 36.007 24.632 31.473
C 34.538 22.537 31.425
H 35.102 22.143 30.563
H 34.847 22.26  32.444
H 33.57  22.097 31.421
C 32.414 25.541 31.705
H 32.776 26.49  31.227
H 31.687 25.768 32.436
C 31.497 24.662 30.728
H 31.89  24.575 29.766
H 31.439 23.673 31.196
C 30.037 25.078 30.605
O 29.062 24.386 30.963
O 29.888 26.357 30.105
N 38.901 25.12  32.08 
C 38.419 24.26  31.099
C 39.59  23.516 30.538
C 40.729 23.958 31.2  
C 40.302 25.085 32.011
C 39.352 22.353 29.465
H 40.262 21.835 29.187
H 38.574 21.751 29.906
H 39.009 22.846 28.526
C 42.125 23.503 30.992
H 42.916 24.179 31.334
C 42.532 22.281 30.523
H 41.867 21.445 30.271
H 43.615 22.026 30.412
N 39.472 27.467 33.836
C 40.754 27.102 33.46 
C 41.698 27.961 34.252
C 40.921 28.846 35.019
C 39.54  28.487 34.838
C 43.18  28.014 34.158
H 43.566 27.637 35.029
H 43.686 27.455 33.319
H 43.602 29.012 34.057
C 41.426 29.941 35.915
H 40.931 29.921 36.914
H 42.53  29.789 36.059
C 41.428 31.29  35.267
H 41.98  32.015 35.858
H 41.924 31.357 34.347
H 40.421 31.637 35.113
N 36.657 27.639 34.463
C 37.041 28.635 35.343
C 35.773 29.201 35.892
C 34.777 28.424 35.422
C 35.329 27.514 34.485
C 35.69  30.226 37.02 
H 35.717 31.309 36.727
H 34.68  30.12  37.489
H 36.418 29.914 37.8  
C 33.351 28.237 35.462
O 32.445 28.897 35.965
C 33.072 27.068 34.49 
H 32.396 27.433 33.745
C 32.35  26.009 35.276
O 32.934 25.066 35.773
O 30.943 26.046 35.061
C 30.221 24.911 35.71 
H 29.161 25.072 35.52 
H 30.562 23.966 35.439
H 30.386 25.115 36.79 
C 28.494 26.845 30.199
H 28.188 26.728 31.196
H 27.863 26.239 29.561
C 28.599 28.329 29.938
H 29.114 28.459 28.991
C 28.097 29.367 30.546
C 27.258 29.203 31.801
H 26.943 28.189 31.922
H 27.835 29.413 32.693
H 26.434 29.885 31.854
C 28.185 30.635 29.835
H 29.059 30.635 29.216
H 28.372 31.402 30.583
C 26.872 30.906 29.045
H 26.637 31.968 29.199
H 26.058 30.34  29.428
C 26.914 30.676 27.531
H 27.839 30.261 27.298
H 26.846 31.694 27.106
C 25.76  29.843 26.91 
H 24.826 30.312 26.995
C 25.634 28.4   27.479
H 24.844 27.811 27.158
H 26.575 27.9   27.201
H 25.543 28.448 28.565
C 25.905 29.708 25.421
H 25.028 29.188 25.03 
H 26.775 29.223 25.097
C 25.958 31.109 24.727
H 26.868 31.539 24.905
H 25.196 31.831 24.971
C 25.724 30.814 23.191
H 24.737 31.279 22.947
H 25.836 29.747 22.866
C 26.72  31.659 22.283
H 27.685 31.522 22.639
C 26.488 33.228 22.345
H 27.274 33.547 21.621
H 25.421 33.409 22.118
H 26.576 33.614 23.387
C 26.568 31.085 20.844
H 26.953 31.798 20.091
H 25.518 30.798 20.61 
C 27.085 29.684 20.616
H 26.312 29.073 20.205
H 27.427 29.135 21.488
C 28.17  29.725 19.516
H 28.951 29.011 19.687
H 28.68  30.701 19.71 
C 27.78  29.623 18.034
H 27.164 30.499 17.881
C 26.954 28.316 17.704
H 27.388 27.429 18.141
H 25.898 28.307 18.03 
H 26.833 28.154 16.63 
C 29.007 29.869 17.229
H 28.72  30.048 16.188
H 29.571 30.674 17.61 
H 29.609 29.024 17.314
