137

Mg 19.301 25.475 27.579
C 22.726 25.355 27.36 
C 19.61  27.902 29.932
H 19.604 28.6   30.69 
C 15.94  26.017 27.436
H 14.872 26.015 27.388
C 19.06  22.726 25.472
H 18.891 21.758 24.95 
N 21.014 26.424 28.568
C 22.339 26.268 28.306
C 23.245 27.166 29.175
H 23.777 26.503 29.877
C 22.128 27.912 30.07 
H 22.393 28.899 29.789
C 20.823 27.435 29.415
C 22.198 27.543 31.585
H 22.943 28.238 31.992
H 21.341 27.888 32.142
H 22.332 26.506 31.848
C 24.124 28.097 28.326
H 23.559 28.887 27.727
H 24.681 27.603 27.486
C 25.167 28.825 29.217
H 25.046 28.743 30.371
H 26.079 28.256 28.98 
C 25.462 30.253 28.862
O 26.221 30.634 27.992
O 24.712 31.081 29.745
N 17.992 26.748 28.559
C 18.285 27.626 29.548
C 17.094 28.342 29.991
C 16.057 27.85  29.216
C 16.634 26.851 28.293
C 17.046 29.458 31.012
H 17.668 30.204 30.711
H 16.08  29.989 31.113
H 17.465 29.056 31.934
C 14.673 28.317 29.334
H 14.341 28.477 30.352
C 13.914 28.545 28.306
H 14.31  28.341 27.224
H 12.89  28.963 28.405
N 17.711 24.477 26.717
C 16.43  24.89  26.721
C 15.641 23.888 25.925
C 16.566 22.895 25.425
C 17.853 23.357 25.898
C 14.179 23.948 25.739
H 13.85  23.285 24.877
H 13.785 23.662 26.718
H 13.784 25.003 25.519
C 16.336 21.702 24.492
H 16.955 20.858 24.812
H 15.346 21.224 24.626
C 16.551 22.014 22.975
H 15.828 22.771 22.695
H 17.543 22.473 22.805
H 16.51  21.042 22.399
N 20.562 24.318 26.595
C 20.345 23.262 25.724
C 21.628 22.83  25.23 
C 22.596 23.61  25.866
C 21.882 24.51  26.651
C 21.856 21.827 24.263
H 22.854 21.959 23.846
H 21.809 20.842 24.716
H 21.087 21.825 23.452
C 23.988 23.82  25.92 
O 24.873 23.292 25.318
C 24.139 24.982 26.839
H 24.566 25.863 26.303
C 25.105 24.662 27.927
O 24.765 24.074 28.947
O 26.329 25.092 27.679
C 27.227 25.02  28.836
H 26.727 25.605 29.604
H 27.287 24.038 29.282
H 28.215 25.385 28.664
C 25.125 32.458 29.741
H 26.226 32.501 29.688
H 24.987 32.941 30.685
C 24.513 33.419 28.817
H 24.23  32.817 27.984
C 24.386 34.749 28.8  
C 24.923 35.658 29.899
H 25.46  36.53  29.452
H 24.084 35.958 30.589
H 25.531 35.022 30.539
C 23.674 35.361 27.676
H 23.678 34.669 26.812
H 24.376 36.162 27.413
C 22.217 35.839 27.841
H 21.927 35.361 28.799
H 21.611 35.353 27.028
C 22.123 37.364 27.792
H 21.545 37.654 26.96 
H 23.094 37.794 27.73 
C 21.381 37.934 29.108
H 21.886 37.451 29.933
C 19.875 37.478 29.255
H 19.374 37.813 28.333
H 19.873 36.383 29.312
H 19.305 37.769 30.178
C 21.53  39.517 29.153
H 21.025 39.687 30.09 
H 20.903 40.036 28.435
C 22.907 40.09  29.328
H 23.69  39.366 29.045
H 23.056 40.423 30.393
C 23.315 41.412 28.51 
H 23.848 42.118 29.146
H 22.371 41.892 28.275
C 24.175 41.21  27.255
H 24.906 40.418 27.455
C 24.981 42.431 26.836
H 25.598 42.891 27.626
H 25.678 42.168 26.023
H 24.275 43.179 26.262
C 23.371 40.597 26.084
H 22.544 41.308 25.89 
H 22.987 39.705 26.443
C 24.11  40.145 24.83 
H 24.097 39.052 24.662
H 25.138 40.417 24.992
C 23.51  40.741 23.519
H 22.629 41.302 23.842
H 23.075 39.926 22.943
C 24.405 41.422 22.416
H 25.09  40.647 22.086
C 25.154 42.665 22.807
H 25.792 42.19  23.649
H 25.788 43.043 22.07 
H 24.377 43.39  23.183
C 23.441 41.693 21.185
H 22.85  42.507 21.578
H 24.014 42.111 20.349
H 22.924 40.804 20.817
