137

Mg 20.944 19.904 23.435
C 22.239 22.472 21.65 
C 20.579 22.117 26.089
H 20.464 22.831 26.921
C 19.263 17.554 25.066
H 18.703 16.831 25.547
C 21.344 17.799 20.731
H 21.421 17.164 19.883
N 21.33  22.058 23.767
C 21.877 22.929 22.929
C 21.906 24.352 23.447
H 22.959 24.685 23.245
C 21.602 24.157 24.93 
H 20.647 24.612 25.238
C 21.153 22.698 24.97 
C 22.782 24.55  25.81 
H 22.784 25.61  25.626
H 22.582 24.375 26.841
H 23.708 24.164 25.506
C 20.878 25.274 22.624
H 19.832 24.854 22.792
H 21.012 25.147 21.528
C 20.636 26.79  23.011
H 19.548 26.905 23.212
H 21.027 27.018 24.   
C 21.161 27.852 21.945
O 21.806 27.548 20.949
O 20.996 29.175 22.278
N 19.961 19.847 25.245
C 20.035 20.822 26.178
C 19.33  20.353 27.309
C 18.991 19.046 27.057
C 19.431 18.75  25.764
C 19.163 21.162 28.618
H 19.657 22.082 28.616
H 18.136 21.557 28.646
H 19.258 20.474 29.418
C 18.283 18.117 27.951
H 18.48  17.048 27.716
C 17.514 18.323 29.073
H 17.146 19.296 29.42 
H 17.146 17.402 29.558
N 20.516 17.922 22.996
C 19.794 17.14  23.82 
C 19.581 15.816 23.231
C 20.237 15.869 22.005
C 20.746 17.241 21.85 
C 18.927 14.645 23.942
H 18.882 13.818 23.258
H 19.421 14.497 24.871
H 17.896 14.903 24.152
C 20.274 14.711 21.014
H 21.168 14.695 20.349
H 20.21  13.763 21.568
C 18.975 14.819 20.196
H 18.981 14.006 19.447
H 18.233 14.626 20.94 
H 18.823 15.754 19.775
N 21.441 20.096 21.489
C 21.783 19.156 20.543
C 22.4   19.819 19.39 
C 22.627 21.114 19.775
C 22.024 21.23  21.026
C 22.838 19.275 18.168
H 22.101 19.537 17.398
H 23.767 19.792 17.933
H 22.976 18.201 18.156
C 23.239 22.383 19.496
O 23.827 22.729 18.466
C 22.998 23.272 20.642
H 22.554 24.173 20.258
C 24.443 23.492 21.103
O 25.275 22.701 21.55 
O 24.624 24.856 21.385
C 25.877 25.307 22.05 
H 25.854 25.066 23.084
H 26.672 24.798 21.637
H 25.88  26.417 22.005
C 21.555 30.144 21.369
H 21.394 29.971 20.33 
H 22.715 30.128 21.604
C 20.822 31.432 21.687
H 19.76  31.388 21.542
C 21.42  32.646 21.935
C 22.859 32.903 22.075
H 23.063 33.581 22.92 
H 23.514 32.036 22.285
H 23.226 33.387 21.149
C 20.618 33.928 22.178
H 20.853 34.44  23.148
H 19.578 33.584 22.282
C 20.557 34.989 21.036
H 20.959 34.485 20.205
H 21.151 35.812 21.343
C 19.087 35.563 20.802
H 18.405 35.101 21.525
H 18.793 35.263 19.779
C 18.96  37.026 20.973
H 19.912 37.439 20.641
C 18.847 37.377 22.48 
H 18.08  36.745 23.   
H 19.893 37.26  22.957
H 18.661 38.397 22.605
C 17.838 37.737 20.13 
H 17.825 38.79  20.397
H 16.821 37.372 20.551
C 17.979 37.595 18.669
H 17.212 36.911 18.249
H 18.919 37.084 18.405
C 17.983 38.932 17.942
H 18.804 39.076 17.2  
H 18.382 39.717 18.559
C 16.71  39.349 17.216
H 16.576 38.514 16.478
C 17.018 40.608 16.402
H 16.082 40.923 15.83 
H 17.342 41.321 17.166
H 17.787 40.491 15.655
C 15.59  39.752 18.162
H 15.886 40.543 18.908
H 15.37  38.886 18.783
C 14.255 40.206 17.561
H 13.423 39.643 18.019
H 14.32  39.996 16.444
C 13.804 41.68  17.71 
H 14.565 42.229 18.237
H 12.997 41.666 18.436
C 13.423 42.451 16.417
H 14.308 42.53  15.771
C 13.148 43.901 16.719
H 13.942 44.525 17.078
H 12.916 44.248 15.739
H 12.34  43.919 17.476
C 12.127 41.968 15.74 
H 12.283 40.963 15.321
H 11.292 41.986 16.498
H 11.818 42.645 14.879
