137

Mg 23.239 20.391 27.881
C 23.49  17.987 25.447
C 26.22  21.639 26.716
H 27.249 22.024 26.407
C 23.264 22.359 30.536
H 23.197 23.213 31.2  
C 20.485 18.665 29.16 
H 19.593 18.235 29.623
N 24.539 20.023 26.223
C 24.454 18.96  25.354
C 25.454 19.023 24.136
H 25.89  18.059 23.955
C 26.573 20.023 24.743
H 26.813 20.818 23.936
C 25.701 20.695 25.936
C 27.776 19.184 25.289
H 27.402 18.658 26.132
H 28.218 18.634 24.522
H 28.562 19.758 25.778
C 24.687 19.571 22.908
H 24.392 20.657 22.961
H 23.692 19.061 22.719
C 25.59  19.313 21.645
H 26.637 18.937 21.921
H 25.17  18.54  21.017
C 25.743 20.512 20.649
O 26.018 20.445 19.473
O 25.48  21.752 21.223
N 24.503 21.868 28.524
C 25.658 22.16  27.901
C 26.265 23.223 28.684
C 25.498 23.413 29.851
C 24.342 22.543 29.701
C 27.616 23.809 28.321
H 27.494 24.512 27.47 
H 27.901 24.417 29.131
H 28.338 22.987 28.065
C 25.792 24.174 31.078
H 24.972 24.465 31.674
C 27.036 24.527 31.632
H 27.933 24.202 31.136
H 27.136 25.128 32.51 
N 21.993 20.593 29.487
C 22.189 21.443 30.485
C 21.152 21.339 31.537
C 20.318 20.257 31.12 
C 20.931 19.781 29.857
C 21.11  22.246 32.745
H 21.9   21.914 33.38 
H 21.192 23.29  32.508
H 20.306 22.017 33.395
C 19.129 19.702 31.813
H 19.134 18.563 31.806
H 18.993 20.101 32.792
C 17.845 20.146 31.08 
H 17.788 19.837 30.03 
H 17.001 19.611 31.555
H 17.734 21.252 31.215
N 22.082 18.742 27.358
C 20.925 18.199 27.936
C 20.546 17.084 27.147
C 21.518 16.92  26.131
C 22.448 17.969 26.351
C 19.443 16.115 27.446
H 19.715 15.477 28.369
H 18.634 16.779 27.666
H 19.265 15.634 26.454
C 21.925 16.122 25.018
O 21.401 15.148 24.507
C 23.196 16.806 24.473
H 23.055 16.996 23.455
C 24.258 15.828 24.588
O 24.92  15.612 25.6  
O 24.307 15.031 23.415
C 25.299 13.938 23.485
H 25.187 13.32  24.418
H 25.082 13.222 22.618
H 26.351 14.234 23.681
C 25.409 22.899 20.282
H 24.924 22.752 19.341
H 26.47  23.27  20.121
C 24.802 24.024 21.102
H 25.384 24.337 22.   
C 23.581 24.645 21.005
C 22.527 24.382 19.975
H 23.032 24.068 19.06 
H 21.812 23.622 20.25 
H 21.928 25.271 19.777
C 23.208 25.69  22.031
H 23.62  25.561 23.029
H 22.14  25.602 22.157
C 23.566 27.12  21.576
H 22.586 27.535 21.511
H 23.846 27.173 20.519
C 24.439 27.847 22.633
H 24.89  27.183 23.432
H 23.761 28.514 23.227
C 25.581 28.666 22.093
H 25.25  29.422 21.361
C 26.701 27.795 21.483
H 27.04  27.192 22.315
H 26.384 27.091 20.67 
H 27.553 28.402 21.165
C 26.214 29.447 23.283
H 27.209 29.713 23.   
H 26.39  28.828 24.181
C 25.502 30.722 23.682
H 24.975 31.197 22.816
H 26.308 31.427 23.913
C 24.639 30.69  24.973
H 25.129 31.422 25.679
H 24.743 29.721 25.406
C 23.154 31.052 24.811
H 22.613 30.234 24.357
C 22.854 32.231 23.823
H 22.862 31.885 22.837
H 21.807 32.536 23.905
H 23.512 33.058 24.001
C 22.449 31.2   26.213
H 22.759 32.189 26.639
H 22.851 30.343 26.815
C 20.904 31.228 26.12 
H 20.504 30.955 25.17 
H 20.474 32.135 26.478
C 20.303 30.245 27.146
H 20.94  29.474 27.355
H 19.552 29.676 26.727
C 19.688 30.798 28.487
H 20.408 31.326 29.104
C 19.351 29.55  29.377
H 18.862 29.802 30.293
H 18.835 28.836 28.76 
H 20.293 29.14  29.621
C 18.385 31.79  28.366
H 17.832 31.833 29.284
H 18.761 32.78  28.209
H 17.754 31.631 27.465
