137

Mg 20.27  25.374 30.194
C 23.209 23.818 29.264
C 22.221 27.749 31.752
H 22.722 28.556 32.262
C 17.486 26.99  31.043
H 16.655 27.607 31.243
C 18.475 22.901 28.588
H 17.944 22.062 28.158
N 22.403 25.62  30.682
C 23.465 24.931 30.126
C 24.852 25.279 30.653
H 25.34  24.429 31.15 
C 24.375 26.365 31.71 
H 24.968 27.263 31.586
C 22.903 26.632 31.301
C 24.521 25.965 33.173
H 23.815 25.254 33.558
H 25.471 25.484 33.323
H 24.486 26.843 33.819
C 25.734 25.874 29.551
H 25.161 26.649 29.046
H 25.849 25.069 28.827
C 27.166 26.329 30.073
H 27.197 26.172 31.132
H 27.997 25.717 29.691
C 27.607 27.696 29.81 
O 28.521 28.031 29.031
O 26.928 28.607 30.62 
N 19.927 27.121 31.074
C 20.822 27.997 31.622
C 20.176 29.174 32.227
C 18.82  28.971 31.98 
C 18.693 27.646 31.291
C 20.866 30.244 33.019
H 21.297 31.058 32.462
H 20.095 30.672 33.661
H 21.505 29.792 33.769
C 17.699 29.771 32.455
H 16.768 29.263 32.787
C 17.703 31.113 32.591
H 18.532 31.813 32.191
H 16.861 31.662 33.108
N 18.316 25.093 29.831
C 17.281 25.827 30.344
C 16.017 25.141 30.06 
C 16.301 24.02  29.279
C 17.748 23.94  29.215
C 14.773 25.603 30.627
H 14.052 24.846 30.458
H 14.862 25.808 31.708
H 14.488 26.531 30.214
C 15.387 22.967 28.767
H 14.366 23.389 28.585
H 15.807 22.462 27.891
C 15.235 21.799 29.767
H 14.786 22.329 30.657
H 14.623 21.025 29.299
H 16.166 21.341 29.962
N 20.686 23.835 29.041
C 19.841 22.864 28.525
C 20.617 21.809 27.888
C 21.97  22.216 28.128
C 21.912 23.374 28.882
C 20.16  20.507 27.197
H 19.959 20.958 26.221
H 20.858 19.621 27.198
H 19.232 20.248 27.699
C 23.362 21.842 27.885
O 23.849 20.906 27.229
C 24.198 22.841 28.569
H 24.791 23.362 27.876
C 25.075 22.051 29.378
O 24.762 21.196 30.223
O 26.339 22.603 29.315
C 27.367 21.685 29.935
H 28.346 22.27  29.98 
H 27.075 21.609 31.032
H 27.452 20.729 29.459
C 27.356 29.98  30.361
H 27.417 30.208 29.254
H 28.301 30.076 30.763
C 26.264 30.894 31.004
H 26.486 31.301 31.932
C 24.987 31.099 30.549
C 24.506 30.619 29.099
H 23.465 30.235 29.174
H 24.446 31.484 28.489
H 25.198 29.887 28.637
C 24.08  31.975 31.307
H 23.882 31.493 32.25 
H 23.187 32.096 30.734
C 24.5   33.483 31.557
H 25.421 33.713 31.049
H 24.781 33.636 32.601
C 23.398 34.481 31.122
H 22.616 34.102 30.502
H 23.876 35.259 30.443
C 22.63  35.239 32.326
H 23.46  35.731 32.993
C 21.901 34.206 33.311
H 22.681 33.428 33.531
H 21.486 34.793 34.167
H 21.075 33.627 32.922
C 21.588 36.359 31.864
H 21.154 36.813 32.716
H 20.774 35.934 31.232
C 22.102 37.51  30.974
H 21.329 37.991 30.333
H 22.861 37.087 30.277
C 22.832 38.66  31.8  
H 23.917 38.568 31.8  
H 22.49  38.512 32.821
C 22.6   40.092 31.482
H 21.553 40.321 31.438
C 23.199 40.32  30.106
H 24.222 40.121 30.092
H 22.713 39.818 29.284
H 23.08  41.373 29.897
C 23.195 41.092 32.545
H 24.248 41.207 32.363
H 23.001 40.724 33.563
C 22.52  42.461 32.593
H 22.195 42.672 33.624
H 21.588 42.379 32.059
C 23.363 43.577 31.93 
H 24.14  43.087 31.292
H 23.812 44.224 32.68 
C 22.623 44.578 30.979
H 21.972 43.932 30.412
C 23.551 45.287 29.99 
H 23.031 45.925 29.344
H 24.286 45.864 30.547
H 24.093 44.684 29.291
C 21.607 45.495 31.772
H 22.216 46.31  32.213
H 20.907 45.951 31.088
H 21.202 44.913 32.672
