137

Mg 22.557 32.116 35.885
C 21.431 30.256 38.451
C 19.406 32.315 34.705
H 18.397 32.395 34.393
C 23.575 33.739 33.004
H 23.872 34.386 32.129
C 25.888 31.3   36.619
H 26.861 31.006 36.875
N 20.668 31.311 36.547
C 20.414 30.581 37.6  
C 18.942 30.221 37.717
H 18.935 29.13  37.7  
C 18.32  30.84  36.494
H 17.582 31.639 36.554
C 19.53  31.587 35.889
C 17.728 29.841 35.495
H 17.336 30.483 34.733
H 18.534 29.246 35.088
H 16.947 29.229 35.834
C 18.229 30.447 39.123
H 18.179 31.512 39.276
H 18.745 30.09  39.976
C 16.75  29.969 39.192
H 16.508 29.368 38.335
H 16.642 29.45  40.102
C 15.665 31.085 39.303
O 15.028 31.375 40.271
O 15.564 31.787 38.155
N 21.581 32.976 34.166
C 20.236 33.028 33.875
C 19.951 33.718 32.625
C 21.223 34.133 32.155
C 22.17  33.562 33.113
C 18.604 33.862 32.035
H 18.617 34.341 31.054
H 18.197 32.865 31.969
H 18.011 34.349 32.76 
C 21.616 34.809 30.922
H 22.448 35.454 30.844
C 21.061 34.526 29.765
H 20.202 33.86  29.769
H 21.515 35.014 28.871
N 24.416 32.576 35.011
C 24.627 33.246 33.758
C 26.063 33.319 33.464
C 26.687 32.653 34.526
C 25.662 32.07  35.427
C 26.619 34.053 32.253
H 27.699 33.851 32.336
H 26.238 33.678 31.355
H 26.525 35.143 32.298
C 28.132 32.414 34.869
H 28.292 31.365 35.193
H 28.661 32.438 33.873
C 28.689 33.415 35.83 
H 29.791 33.268 35.971
H 28.307 34.392 35.482
H 28.22  33.244 36.784
N 23.508 31.249 37.333
C 24.872 30.965 37.573
C 24.953 30.173 38.741
C 23.655 29.834 39.1  
C 22.785 30.58  38.31 
C 26.224 29.593 39.405
H 27.066 29.239 38.817
H 26.429 30.375 40.124
H 25.953 28.749 39.978
C 22.869 29.052 40.008
O 23.265 28.418 40.966
C 21.369 29.246 39.631
H 21.007 29.804 40.47 
C 20.804 27.887 39.422
O 21.26  27.051 38.635
O 19.685 27.656 40.129
C 18.853 26.445 39.84 
H 17.993 26.308 40.459
H 18.66  26.378 38.739
H 19.514 25.536 39.991
C 14.587 32.879 38.105
H 14.627 33.487 39.067
H 13.635 32.43  38.08 
C 14.923 33.584 36.813
H 14.702 33.066 35.83 
C 15.643 34.68  36.614
C 16.13  35.58  37.716
H 16.257 36.526 37.341
H 15.386 35.665 38.539
H 17.073 35.216 38.08 
C 16.097 35.123 35.211
H 16.352 34.159 34.72 
H 17.063 35.534 35.374
C 15.189 36.102 34.4  
H 15.472 37.187 34.502
H 14.159 36.151 34.771
C 15.196 35.764 32.865
H 14.421 35.029 32.659
H 16.128 35.231 32.668
C 15.034 36.965 31.806
H 14.178 37.613 32.232
C 14.476 36.441 30.419
H 15.151 35.734 30.04 
H 13.49  35.973 30.489
H 14.428 37.326 29.781
C 16.179 37.968 31.562
H 16.423 38.429 32.485
H 15.779 38.666 30.975
C 17.43  37.493 30.789
H 17.052 37.195 29.818
H 17.823 36.645 31.387
C 18.533 38.61  30.689
H 19.357 38.26  31.387
H 18.143 39.467 31.244
C 19.077 38.923 29.232
H 18.326 39.179 28.51 
C 19.939 37.732 28.801
H 20.483 37.823 27.855
H 20.662 37.418 29.517
H 19.371 36.856 28.722
C 19.913 40.234 29.252
H 20.418 40.118 28.303
H 20.637 40.08  29.989
C 19.275 41.649 29.076
H 18.293 41.685 29.588
H 19.082 41.988 28.021
C 20.234 42.72  29.68 
H 20.682 43.232 28.814
H 20.974 42.189 30.322
C 19.583 43.844 30.608
H 19.106 43.341 31.374
C 18.482 44.649 29.93 
H 18.123 45.479 30.527
H 18.888 45.222 29.082
H 17.693 44.025 29.65 
C 20.742 44.732 31.062
H 20.202 45.631 31.469
H 21.17  44.166 31.95 
H 21.482 44.859 30.287
