137

Mg 20.878 18.935 23.508
C 24.014 19.775 22.443
C 20.767 21.851 25.329
H 20.747 22.699 26.08 
C 17.757 18.081 24.515
H 16.785 17.757 24.953
C 20.922 16.183 21.434
H 21.014 15.319 20.761
N 22.213 20.634 23.859
C 23.457 20.754 23.225
C 24.074 22.115 23.51 
H 25.067 21.905 23.851
C 23.13  22.706 24.662
H 22.841 23.784 24.426
C 21.924 21.743 24.588
C 23.788 22.729 26.014
H 24.302 21.807 26.291
H 24.501 23.545 25.972
H 23.001 23.015 26.756
C 24.33  23.071 22.33 
H 23.366 23.189 21.814
H 25.099 22.56  21.675
C 24.98  24.427 22.575
H 25.107 24.665 23.648
H 26.007 24.241 22.203
C 24.242 25.598 21.967
O 24.223 25.773 20.745
O 23.676 26.475 22.857
N 19.473 19.859 24.595
C 19.581 21.06  25.28 
C 18.385 21.351 25.979
C 17.54  20.285 25.835
C 18.279 19.328 25.   
C 18.217 22.55  26.837
H 17.214 22.608 27.263
H 19.004 22.661 27.538
H 18.241 23.448 26.155
C 16.157 20.065 26.382
H 15.913 19.    26.647
C 15.266 21.033 26.777
H 15.307 22.129 26.535
H 14.362 20.621 27.234
N 19.528 17.386 23.017
C 18.266 17.294 23.513
C 17.614 16.183 22.844
C 18.57  15.666 21.939
C 19.776 16.409 22.084
C 16.172 15.704 23.114
H 15.823 14.779 22.713
H 16.201 15.657 24.229
H 15.517 16.518 22.864
C 18.322 14.511 20.978
H 19.074 13.726 21.157
H 17.343 14.102 21.28 
C 18.304 15.164 19.575
H 17.893 14.453 18.849
H 17.638 16.005 19.666
H 19.343 15.473 19.251
N 22.213 18.036 22.206
C 22.131 16.905 21.471
C 23.42  16.556 20.813
C 24.195 17.695 21.188
C 23.414 18.583 21.986
C 23.86  15.395 19.864
H 24.616 14.823 20.44 
H 23.004 14.794 19.52 
H 24.407 15.797 19.006
C 25.481 18.315 20.975
O 26.389 17.992 20.298
C 25.416 19.76  21.737
H 25.364 20.573 21.076
C 26.585 19.903 22.67 
O 26.743 19.209 23.667
O 27.529 20.729 22.124
C 28.847 20.743 22.696
H 29.206 19.806 23.256
H 29.594 20.842 21.892
H 28.997 21.509 23.406
C 23.406 27.799 22.27 
H 22.511 27.817 21.745
H 24.269 27.97  21.585
C 23.375 28.827 23.396
H 22.392 29.162 23.699
C 24.38  29.437 24.072
C 25.939 29.175 23.863
H 26.062 28.341 23.271
H 26.427 30.084 23.428
H 26.311 28.924 24.857
C 24.008 30.558 25.102
H 24.103 30.064 26.091
H 22.961 30.935 24.933
C 24.825 31.841 25.229
H 25.774 31.618 24.766
H 24.859 32.05  26.3  
C 24.17  33.098 24.515
H 23.398 32.747 23.793
H 24.962 33.497 23.87 
C 23.523 34.148 25.433
H 24.329 34.599 26.033
C 22.513 33.605 26.491
H 21.594 33.371 25.964
H 22.914 32.739 27.041
H 22.287 34.349 27.223
C 22.876 35.214 24.604
H 22.302 35.894 25.269
H 22.08  34.752 23.977
C 23.724 36.101 23.661
H 23.369 35.86  22.615
H 24.679 35.737 23.776
C 23.676 37.665 23.934
H 24.717 38.012 23.715
H 23.451 37.942 25.003
C 22.568 38.38  22.977
H 22.849 38.052 21.935
C 22.84  39.853 23.028
H 22.074 40.525 22.622
H 23.206 40.306 23.928
H 23.726 40.052 22.354
C 21.071 37.947 23.107
H 20.556 38.448 23.918
H 21.007 36.875 23.193
C 20.142 38.297 21.928
H 19.644 37.339 21.877
H 20.837 38.492 21.168
C 19.176 39.51  22.144
H 19.674 40.152 22.873
H 18.304 38.97  22.501
C 18.668 40.27  20.961
H 19.582 40.705 20.474
C 17.662 41.392 21.349
H 18.019 42.134 22.055
H 17.514 42.004 20.453
H 16.695 40.999 21.614
C 18.099 39.376 19.855
H 18.685 38.536 19.708
H 17.086 38.965 20.175
H 17.942 39.866 18.945
