137

Mg 37.169 31.171 36.432
C 34.463 29.203 35.562
C 38.44  30.5   33.299
H 38.728 30.489 32.255
C 39.813 33.005 37.29 
H 40.74  33.46  37.555
C 35.646 31.842 39.463
H 35.267 31.944 40.439
N 36.54  29.967 34.566
C 35.343 29.298 34.49 
C 35.295 28.575 33.124
H 35.093 27.544 33.257
C 36.672 28.835 32.524
H 36.683 29.416 31.567
C 37.296 29.76  33.522
C 37.517 27.531 32.297
H 38.453 27.728 31.788
H 37.558 26.842 33.123
H 36.992 26.901 31.563
C 34.182 29.058 32.173
H 34.215 30.147 32.259
H 33.242 28.797 32.708
C 34.054 28.537 30.725
H 33.958 29.432 30.076
H 35.004 28.004 30.58 
C 32.963 27.528 30.207
O 32.872 26.338 30.487
O 32.071 28.302 29.489
N 38.761 31.725 35.486
C 39.11  31.386 34.224
C 40.334 32.056 33.876
C 40.864 32.672 35.041
C 39.771 32.529 36.014
C 40.997 32.031 32.548
H 41.836 32.788 32.539
H 41.282 30.97  32.256
H 40.276 32.313 31.812
C 42.128 33.466 35.17 
H 42.279 34.118 34.318
C 42.949 33.398 36.208
H 42.641 32.824 37.13 
H 43.88  33.987 36.248
N 37.596 32.454 38.022
C 38.778 33.045 38.204
C 38.845 33.622 39.521
C 37.604 33.441 40.128
C 36.861 32.558 39.203
C 40.031 34.253 40.111
H 39.847 33.989 41.126
H 40.935 33.865 39.758
H 39.973 35.325 40.048
C 37.149 33.941 41.496
H 37.016 33.094 42.181
H 37.889 34.64  41.905
C 35.868 34.737 41.287
H 36.104 35.627 40.7  
H 35.116 34.194 40.72 
H 35.548 35.032 42.241
N 35.404 30.653 37.339
C 34.964 30.971 38.614
C 33.797 30.205 38.893
C 33.514 29.511 37.673
C 34.549 29.788 36.818
C 32.867 30.206 40.075
H 33.489 29.873 40.93 
H 32.435 31.171 40.177
H 32.053 29.53  39.872
C 32.67  28.582 37.029
O 31.719 27.886 37.425
C 33.15  28.346 35.569
H 32.318 28.691 34.914
C 33.383 26.909 35.395
O 34.132 26.27  36.148
O 32.753 26.386 34.255
C 32.954 25.021 33.931
H 33.935 24.922 33.454
H 32.923 24.484 34.867
H 32.154 24.704 33.284
C 30.867 27.577 28.997
H 30.377 27.052 29.835
H 31.231 26.937 28.155
C 30.059 28.636 28.377
H 30.566 29.498 28.016
C 28.743 28.782 28.643
C 27.805 27.857 29.445
H 27.61  28.456 30.303
H 26.961 27.541 28.904
H 28.23  26.841 29.75 
C 28.105 30.048 28.053
H 28.826 30.658 27.332
H 27.907 30.592 28.95 
C 26.822 29.965 27.258
H 26.516 28.958 27.381
H 27.032 30.061 26.157
C 25.646 30.86  27.694
H 25.928 31.544 28.511
H 25.013 30.182 28.117
C 24.733 31.601 26.622
H 24.363 30.835 25.865
C 25.569 32.702 25.861
H 26.005 33.364 26.67 
H 26.363 32.173 25.315
H 24.88  33.268 25.248
C 23.445 32.204 27.351
H 23.089 32.908 26.604
H 23.727 32.737 28.283
C 22.291 31.135 27.475
H 22.763 30.167 27.303
H 21.545 31.441 26.775
C 21.713 31.1   28.916
H 20.738 31.596 28.788
H 22.336 31.742 29.588
C 21.771 29.701 29.554
H 22.739 29.174 29.461
C 20.716 28.76  28.947
H 21.1   28.472 27.931
H 20.384 27.915 29.614
H 19.894 29.487 28.833
C 21.522 29.704 31.091
H 21.317 28.647 31.448
H 20.543 30.238 31.294
C 22.565 30.36  32.081
H 22.147 31.131 32.636
H 23.412 30.869 31.619
C 23.104 29.313 33.137
H 22.738 28.299 32.973
H 22.634 29.662 34.033
C 24.606 29.367 33.24 
H 24.905 30.34  33.398
C 25.358 28.893 31.924
H 25.134 29.591 31.118
H 26.416 28.899 32.104
H 24.877 27.951 31.665
C 25.057 28.482 34.314
H 24.733 27.485 34.058
H 26.144 28.498 34.425
H 24.558 28.571 35.27 
