137

Mg 22.335 17.74  25.907
C 23.831 18.353 22.798
C 24.761 19.691 27.303
H 25.626 20.184 27.827
C 20.951 17.153 28.981
H 20.648 16.911 29.927
C 20.287 15.474 24.504
H 19.703 14.672 24.095
N 23.923 19.078 25.056
C 24.392 19.101 23.805
C 25.587 19.996 23.685
H 26.366 19.447 23.225
C 26.022 20.322 25.142
H 25.958 21.339 25.351
C 24.775 19.697 25.92 
C 27.265 19.579 25.682
H 27.19  18.526 25.629
H 28.107 19.966 25.029
H 27.565 19.76  26.707
C 25.282 21.262 22.801
H 24.318 21.679 23.177
H 24.948 20.793 21.898
C 26.389 22.334 22.529
H 27.398 21.847 22.696
H 26.181 22.778 21.565
C 26.523 23.564 23.313
O 27.591 24.048 23.629
O 25.335 24.006 23.772
N 22.803 18.378 27.874
C 23.856 19.096 28.221
C 23.844 19.338 29.725
C 22.713 18.574 30.161
C 22.081 17.991 29.003
C 24.806 20.136 30.468
H 25.273 20.844 29.8  
H 24.208 20.712 31.181
H 25.647 19.539 30.824
C 22.161 18.328 31.51 
H 21.226 17.828 31.569
C 22.813 18.511 32.693
H 23.77  19.065 32.722
H 22.321 18.172 33.65 
N 20.713 16.755 26.567
C 20.309 16.567 27.831
C 19.159 15.672 27.941
C 19.038 15.195 26.677
C 19.984 15.838 25.857
C 18.352 15.522 29.256
H 18.935 15.022 29.991
H 17.977 16.463 29.637
H 17.468 15.015 28.924
C 18.077 14.112 26.225
H 18.477 13.544 25.369
H 17.906 13.409 27.073
C 16.688 14.861 25.888
H 17.001 15.756 25.233
H 16.116 14.166 25.34 
H 16.136 15.1   26.819
N 22.047 16.955 24.05 
C 21.197 15.96  23.605
C 21.474 15.746 22.132
C 22.523 16.621 21.805
C 22.851 17.338 22.976
C 20.762 14.823 21.145
H 21.394 14.793 20.306
H 20.712 13.855 21.627
H 19.785 15.351 20.914
C 23.349 17.163 20.78 
O 23.437 16.753 19.636
C 24.287 18.266 21.322
H 24.074 19.095 20.667
C 25.678 17.813 21.142
O 26.148 16.753 21.547
O 26.428 18.763 20.529
C 27.874 18.495 20.221
H 28.414 19.244 19.68 
H 28.412 18.434 21.158
H 27.911 17.572 19.622
C 25.423 25.124 24.661
H 26.121 25.925 24.336
H 25.808 24.773 25.567
C 24.095 25.8   24.761
H 23.353 25.058 25.036
C 23.755 27.102 24.576
C 24.785 28.18  24.351
H 24.459 28.879 23.613
H 24.939 28.619 25.342
H 25.813 27.767 24.022
C 22.33  27.562 24.999
H 21.606 26.752 24.896
H 22.024 28.401 24.354
C 22.24  28.115 26.451
H 23.179 28.679 26.643
H 22.323 27.257 27.068
C 20.971 28.952 26.772
H 20.594 28.731 27.703
H 20.193 28.797 26.097
C 21.031 30.504 26.787
H 21.464 30.81  25.835
C 21.93  30.921 27.99 
H 22.215 31.961 27.819
H 21.471 30.794 28.937
H 22.869 30.361 28.049
C 19.589 31.19  26.978
H 19.744 32.218 26.909
H 19.255 30.861 27.984
C 18.436 30.918 25.926
H 17.742 30.171 26.292
H 18.9   30.577 24.996
C 17.621 32.155 25.646
H 17.405 32.133 24.586
H 18.132 33.094 25.886
C 16.259 32.287 26.339
H 15.644 31.588 25.775
C 15.585 33.719 25.976
H 16.007 34.56  26.597
H 15.656 33.819 24.909
H 14.54  33.677 26.319
C 16.334 32.073 27.904
H 17.033 32.755 28.435
H 16.562 31.005 27.998
C 14.902 32.298 28.562
H 14.1   31.941 27.902
H 14.819 33.378 28.803
C 14.663 31.411 29.834
H 15.654 31.191 30.238
H 14.133 30.575 29.383
C 13.814 31.955 31.073
H 14.325 32.847 31.42 
C 13.801 30.957 32.292
H 14.839 30.841 32.611
H 13.177 31.416 33.087
H 13.276 30.028 31.872
C 12.334 32.4   30.815
H 12.259 33.371 30.224
H 11.92  31.56  30.245
H 11.785 32.494 31.791
