137

Mg 29.624 33.826 34.291
C 28.244 34.002 37.399
C 26.348 33.405 33.   
H 25.451 32.982 32.603
C 30.869 34.052 31.157
H 31.278 34.068 30.124
C 32.842 33.707 35.624
H 33.888 33.677 36.056
N 27.616 33.914 35.111
C 27.277 34.038 36.402
C 25.805 34.068 36.605
H 25.478 33.368 37.386
C 25.224 33.528 35.28 
H 24.39  34.175 34.898
C 26.446 33.646 34.393
C 24.623 32.095 35.403
H 24.124 31.881 34.494
H 25.462 31.414 35.689
H 23.897 32.086 36.191
C 25.38  35.443 37.021
H 25.772 36.159 36.246
H 25.912 35.617 37.928
C 23.907 35.721 37.35 
H 23.353 34.957 36.798
H 23.913 35.584 38.474
C 23.271 36.984 36.819
O 23.078 38.061 37.408
O 23.025 36.906 35.447
N 28.751 33.826 32.451
C 27.388 33.69  32.135
C 27.199 33.868 30.687
C 28.484 33.948 30.116
C 29.451 33.947 31.233
C 25.906 33.62  29.988
H 25.21  34.463 30.102
H 26.054 33.528 28.857
H 25.436 32.649 30.203
C 28.963 33.858 28.713
H 29.936 33.554 28.38 
C 28.267 34.405 27.71 
H 27.267 34.943 27.9  
H 28.636 34.345 26.636
N 31.558 33.81  33.491
C 31.829 33.985 32.192
C 33.295 34.144 32.059
C 33.858 33.923 33.36 
C 32.693 33.762 34.194
C 34.002 34.426 30.746
H 33.35  34.997 30.021
H 34.855 35.017 30.89 
H 34.276 33.427 30.31 
C 35.265 33.953 33.843
H 35.497 33.152 34.533
H 35.908 33.961 33.003
C 35.688 35.273 34.538
H 34.966 35.742 35.239
H 36.54  35.087 35.18 
H 35.983 36.12  33.916
N 30.443 33.976 36.085
C 31.759 33.837 36.516
C 31.753 33.805 38.005
C 30.369 33.941 38.342
C 29.609 33.988 37.178
C 32.857 33.647 38.952
H 32.47  33.675 39.951
H 33.372 32.676 38.754
H 33.618 34.405 38.799
C 29.46  33.933 39.478
O 29.675 33.89  40.656
C 28.018 34.007 38.919
H 27.491 34.912 39.352
C 27.479 32.718 39.367
O 28.011 31.629 39.338
O 26.15  32.828 39.743
C 25.35  31.652 39.96 
H 25.618 30.897 39.295
H 25.583 31.241 40.919
H 24.287 31.878 39.936
C 22.332 37.995 34.84 
H 23.065 38.787 34.699
H 21.529 38.311 35.547
C 22.031 37.522 33.457
H 22.767 37.081 32.829
C 20.824 37.649 32.881
C 19.678 38.509 33.473
H 19.321 39.262 32.714
H 18.791 37.86  33.717
H 19.784 38.999 34.437
C 20.424 36.935 31.65 
H 21.246 36.293 31.449
H 20.541 37.716 30.985
C 19.066 36.146 31.507
H 18.639 35.879 32.487
H 19.267 35.232 31.067
C 18.064 36.998 30.684
H 18.575 37.936 30.572
H 17.319 37.224 31.4  
C 17.512 36.619 29.365
H 18.404 36.217 28.782
C 16.93  37.848 28.659
H 17.769 38.633 28.612
H 16.753 37.458 27.636
H 16.002 38.292 29.027
C 16.479 35.472 29.435
H 16.927 34.695 30.103
H 16.233 35.056 28.465
C 15.122 35.775 30.102
H 15.129 36.793 30.538
H 15.198 35.109 30.92 
C 13.886 35.483 29.225
H 14.168 35.109 28.324
H 13.392 36.443 29.007
C 12.928 34.34  29.848
H 12.764 34.573 30.869
C 13.599 33.002 29.893
H 13.759 32.739 28.855
H 14.488 33.004 30.541
H 12.942 32.363 30.518
C 11.578 34.263 29.103
H 11.81  34.027 28.073
H 11.27  35.231 29.108
C 10.344 33.552 29.788
H  9.596 34.237 30.095
H 10.646 33.024 30.641
C  9.839 32.492 28.841
H  9.317 31.65  29.317
H 10.713 32.069 28.264
C  8.844 33.137 27.719
H  7.868 33.303 28.169
C  8.617 32.065 26.627
H  7.858 32.456 25.905
H  9.431 31.825 26.032
H  8.154 31.192 27.121
C  9.416 34.388 27.001
H  8.636 34.568 26.266
H  9.509 35.271 27.605
H 10.269 34.144 26.371
