137

Mg 28.919 29.251 32.657
C 27.899 25.999 31.89 
C 30.767 29.287 29.673
H 31.371 29.241 28.67 
C 30.162 32.233 33.436
H 30.506 33.238 33.773
C 27.327 29.086 35.594
H 26.825 28.908 36.594
N 29.248 27.876 31.002
C 28.63  26.661 30.837
C 28.878 26.017 29.423
H 29.402 25.065 29.542
C 29.796 27.138 28.817
H 29.261 27.57  27.992
C 29.898 28.184 29.912
C 31.196 26.557 28.37 
H 31.898 26.324 29.15 
H 30.872 25.596 27.963
H 31.589 27.126 27.545
C 27.614 25.699 28.546
H 27.276 26.607 28.169
H 26.876 25.311 29.227
C 27.893 24.705 27.39 
H 27.643 25.014 26.462
H 28.97  24.453 27.414
C 27.427 23.287 27.474
O 27.863 22.385 26.821
O 26.271 23.221 28.125
N 30.26  30.533 31.737
C 30.936 30.315 30.558
C 31.881 31.433 30.341
C 31.768 32.299 31.43 
C 30.67  31.714 32.272
C 32.788 31.494 29.148
H 32.836 32.475 28.674
H 33.759 31.21  29.498
H 32.493 30.793 28.311
C 32.611 33.574 31.834
H 32.412 34.044 32.812
C 33.604 34.235 31.231
H 33.963 33.964 30.199
H 33.885 35.176 31.627
N 28.671 30.539 34.283
C 29.244 31.67  34.372
C 28.778 32.358 35.597
C 27.875 31.443 36.256
C 27.952 30.344 35.379
C 29.284 33.72  35.994
H 29.531 34.372 35.168
H 28.565 34.28  36.649
H 30.256 33.574 36.477
C 27.085 31.461 37.534
H 26.003 31.496 37.242
H 27.279 30.518 38.058
C 27.351 32.624 38.531
H 28.375 32.551 38.95 
H 27.089 33.591 38.094
H 26.643 32.546 39.334
N 27.831 27.904 33.605
C 27.265 27.843 34.857
C 26.616 26.564 35.077
C 26.936 25.821 34.006
C 27.606 26.633 33.081
C 25.9   26.383 36.401
H 26.599 26.556 37.302
H 25.062 27.087 36.471
H 25.511 25.379 36.458
C 26.792 24.495 33.42 
O 26.167 23.546 33.845
C 27.333 24.519 31.993
H 26.504 24.351 31.299
C 28.271 23.382 31.806
O 29.448 23.294 32.182
O 27.666 22.391 31.047
C 28.643 21.455 30.506
H 29.359 22.027 29.857
H 29.251 20.879 31.226
H 28.072 20.823 29.755
C 25.516 21.977 28.106
H 25.9   21.222 28.793
H 25.596 21.596 27.105
C 24.082 22.475 28.279
H 23.648 23.045 27.465
C 23.233 22.438 29.316
C 23.609 21.639 30.526
H 22.865 20.884 30.599
H 24.545 21.158 30.554
H 23.471 22.186 31.393
C 21.854 23.098 29.484
H 21.792 23.989 28.823
H 21.725 23.324 30.557
C 20.763 22.101 29.133
H 20.194 21.752 29.995
H 21.095 21.183 28.713
C 19.75  22.629 28.078
H 20.109 22.517 27.01 
H 19.643 23.758 28.171
C 18.271 22.139 28.124
H 18.415 21.029 28.175
C 17.483 22.363 26.741
H 17.492 23.49  26.503
H 18.065 21.883 25.917
H 16.484 21.985 26.604
C 17.43  22.689 29.307
H 17.827 22.023 30.178
H 16.387 22.358 29.213
C 17.379 24.272 29.511
H 16.299 24.502 29.579
H 17.816 24.74  28.622
C 17.987 24.643 30.892
H 18.57  25.529 30.629
H 18.708 23.95  31.279
C 16.932 24.928 32.067
H 16.34  25.657 31.642
C 17.514 25.763 33.307
H 18.417 25.272 33.603
H 17.812 26.665 32.876
H 16.783 26.031 34.04 
C 16.221 23.646 32.52 
H 16.944 22.998 33.023
H 15.774 23.047 31.752
C 14.958 23.865 33.377
H 14.161 23.387 32.737
H 14.664 24.959 33.494
C 15.003 23.02  34.625
H 15.995 22.707 34.884
H 14.47  22.162 34.522
C 14.324 23.766 35.879
H 14.617 24.873 35.912
C 14.756 23.006 37.183
H 14.417 23.765 37.935
H 14.159 22.084 37.303
H 15.813 22.873 37.313
C 12.785 24.015 35.682
H 12.281 23.006 35.646
H 12.474 24.568 36.572
H 12.553 24.549 34.79 
