137

Mg 36.258 26.394 32.405
C 32.865 26.494 31.902
C 36.447 23.774 30.29 
H 36.478 22.963 29.473
C 39.542 25.967 33.067
H 40.616 25.898 33.273
C 36.082 28.928 34.761
H 35.971 29.745 35.468
N 34.802 25.248 31.262
C 33.479 25.55  31.134
C 32.784 24.702 30.092
H 31.913 24.421 30.668
C 33.918 23.649 29.803
H 34.006 23.569 28.716
C 35.189 24.284 30.403
C 33.638 22.168 30.278
H 34.644 21.706 30.403
H 33.2   22.258 31.311
H 33.075 21.624 29.539
C 32.434 25.637 28.928
H 33.352 26.044 28.534
H 31.862 26.367 29.417
C 31.666 24.857 27.847
H 32.229 25.015 26.928
H 31.601 23.835 28.125
C 30.172 25.238 27.835
O 29.258 24.419 27.994
O 29.998 26.526 27.499
N 37.721 25.097 31.805
C 37.644 24.027 30.912
C 38.83  23.263 30.797
C 39.812 23.96  31.54 
C 39.032 25.115 32.191
C 39.107 22.031 30.063
H 38.213 21.422 30.131
H 39.207 22.294 29.002
H 39.993 21.456 30.367
C 41.251 23.723 31.856
H 41.636 24.099 32.79 
C 42.183 23.006 31.122
H 41.87  22.61  30.095
H 43.208 22.814 31.525
N 37.646 27.263 33.774
C 38.961 26.999 33.812
C 39.551 27.989 34.69 
C 38.561 28.779 35.222
C 37.358 28.359 34.606
C 41.035 28.196 34.799
H 41.462 28.146 33.793
H 41.291 29.186 35.199
H 41.432 27.524 35.516
C 38.632 30.028 36.134
H 37.976 30.031 37.   
H 39.602 30.078 36.548
C 38.429 31.368 35.335
H 38.712 32.28  35.895
H 39.035 31.28  34.411
H 37.368 31.396 35.011
N 34.862 27.487 33.155
C 34.894 28.496 34.147
C 33.532 28.933 34.408
C 32.75  28.18  33.527
C 33.591 27.25  32.893
C 33.062 29.929 35.375
H 33.105 30.9   34.844
H 32.088 29.694 35.794
H 33.833 30.016 36.177
C 31.355 27.973 33.099
O 30.326 28.62  33.229
C 31.337 26.772 32.132
H 30.857 27.205 31.215
C 30.582 25.737 32.808
O 30.892 25.291 33.921
O 29.585 25.239 32.03 
C 29.046 23.95  32.537
H 29.63  23.087 32.455
H 28.505 24.056 33.448
H 28.325 23.615 31.802
C 28.638 26.913 27.203
H 27.999 26.552 28.038
H 28.271 26.414 26.255
C 28.598 28.404 26.924
H 29.158 28.579 26.014
C 28.128 29.417 27.58 
C 27.302 29.305 28.768
H 26.502 30.    28.662
H 26.879 28.342 28.864
H 27.918 29.586 29.549
C 28.592 30.766 26.855
H 29.645 30.672 26.811
H 28.333 31.73  27.436
C 28.113 31.169 25.418
H 29.077 31.025 24.848
H 27.753 32.183 25.37 
C 26.903 30.304 24.894
H 26.465 29.824 25.705
H 27.114 29.603 24.13 
C 25.656 31.251 24.495
H 25.966 31.97  23.756
C 25.005 31.931 25.685
H 24.104 32.471 25.326
H 24.53  31.113 26.234
H 25.652 32.512 26.211
C 24.569 30.414 23.658
H 23.81  31.11  23.436
H 24.118 29.594 24.271
C 25.105 29.794 22.357
H 25.07  28.681 22.513
H 26.169 30.13  22.231
C 24.355 30.157 21.08 
H 23.297 30.377 21.263
H 24.393 29.193 20.504
C 24.973 31.25  20.144
H 26.05  31.057 19.989
C 24.983 32.692 20.85 
H 24.982 33.393 19.991
H 24.094 32.94  21.444
H 25.791 32.896 21.485
C 24.358 31.188 18.767
H 23.356 31.359 18.778
H 24.352 30.152 18.525
C 25.123 32.005 17.665
H 25.604 31.294 16.93 
H 25.825 32.612 18.186
C 24.162 32.855 16.853
H 24.745 33.66  16.382
H 23.422 33.372 17.492
C 23.389 32.197 15.663
H 22.809 31.376 16.071
C 24.439 31.718 14.589
H 25.088 32.579 14.284
H 25.041 30.91  14.98 
H 23.945 31.353 13.71 
C 22.502 33.202 14.998
H 22.    32.664 14.143
H 21.606 33.564 15.491
H 23.181 34.031 14.648
