137

Mg 31.637 29.6   36.376
C 28.705 29.282 38.073
C 29.897 29.372 33.456
H 29.35  29.213 32.52 
C 34.479 30.413 34.796
H 35.388 30.714 34.248
C 33.295 29.718 39.395
H 33.784 29.673 40.357
N 29.543 29.265 35.812
C 28.491 29.199 36.677
C 27.171 28.937 35.949
H 26.801 27.918 36.242
C 27.623 28.739 34.447
H 26.988 29.302 33.744
C 29.133 29.185 34.576
C 27.639 27.232 34.041
H 26.659 26.728 34.161
H 27.874 27.146 33.011
H 28.381 26.751 34.689
C 26.071 30.013 36.346
H 26.268 30.829 35.674
H 26.354 30.456 37.327
C 24.57  29.591 36.203
H 24.496 28.603 35.793
H 24.099 29.516 37.17 
C 23.555 30.28  35.363
O 22.856 31.233 35.79 
O 23.47  29.741 34.174
N 32.111 29.919 34.536
C 31.225 29.799 33.472
C 31.984 30.07  32.271
C 33.33  30.256 32.564
C 33.359 30.234 34.044
C 31.261 30.091 30.908
H 30.202 30.266 30.978
H 31.523 30.927 30.309
H 31.338 29.118 30.446
C 34.492 30.44  31.655
H 35.453 30.663 32.123
C 34.487 30.266 30.337
H 33.574 29.94  29.86 
H 35.428 30.472 29.838
N 33.594 30.006 37.067
C 34.647 30.288 36.224
C 35.818 30.542 37.01 
C 35.416 30.54  38.381
C 34.076 30.071 38.303
C 37.159 30.773 36.316
H 37.229 29.973 35.566
H 37.156 31.853 36.08 
H 37.803 30.553 37.153
C 36.265 30.851 39.566
H 36.532 29.963 40.122
H 37.29  31.125 39.301
C 35.66  31.889 40.53 
H 34.895 31.34  41.067
H 36.357 32.355 41.171
H 35.248 32.668 39.866
N 31.169 29.443 38.287
C 31.952 29.426 39.42 
C 31.194 29.204 40.554
C 29.857 29.091 40.113
C 29.933 29.304 38.731
C 31.735 29.039 41.899
H 32.203 29.998 42.199
H 31.08  28.717 42.679
H 32.622 28.405 41.841
C 28.509 28.876 40.497
O 27.935 28.779 41.535
C 27.713 29.07  39.22 
H 27.108 29.988 39.486
C 26.764 27.857 39.161
O 26.998 26.727 38.715
O 25.524 28.237 39.656
C 24.554 27.183 39.764
H 24.684 26.585 38.865
H 24.777 26.596 40.688
H 23.58  27.614 39.692
C 22.492 30.382 33.297
H 22.668 31.413 33.045
H 21.596 30.257 33.856
C 22.661 29.562 32.116
H 23.618 29.588 31.528
C 21.907 28.606 31.553
C 20.607 28.073 32.058
H 20.58  27.049 31.788
H 20.444 28.217 33.123
H 19.84  28.676 31.56 
C 22.271 27.922 30.239
H 22.715 28.665 29.583
H 21.349 27.561 29.781
C 23.151 26.668 30.393
H 23.015 26.077 31.248
H 24.215 26.813 30.341
C 22.851 25.748 29.213
H 23.833 25.419 28.87 
H 22.469 26.214 28.264
C 22.154 24.406 29.529
H 22.629 24.059 30.421
C 22.342 23.368 28.407
H 21.822 22.479 28.859
H 21.881 23.661 27.483
H 23.366 23.017 28.33 
C 20.661 24.558 29.937
H 20.682 25.261 30.795
H 20.295 23.567 30.287
C 19.581 25.185 28.995
H 20.026 25.451 28.09 
H 19.444 26.092 29.542
C 18.299 24.332 28.864
H 18.369 23.372 29.399
H 18.198 24.052 27.824
C 16.964 25.051 29.206
H 16.955 25.953 28.569
C 16.959 25.541 30.656
H 16.527 24.748 31.29 
H 17.953 25.806 30.954
H 16.367 26.498 30.664
C 15.684 24.215 28.919
H 15.773 23.269 29.445
H 15.649 23.999 27.807
C 14.388 24.857 29.349
H 14.531 25.935 29.14 
H 14.28  24.709 30.368
C 13.088 24.356 28.58 
H 13.449 23.91  27.637
H 12.535 25.27  28.284
C 12.186 23.326 29.303
H 12.774 22.499 29.654
C 11.185 22.64  28.436
H 11.755 22.351 27.528
H 10.739 21.788 28.938
H 10.392 23.389 28.247
C 11.456 24.112 30.426
H 10.954 23.317 30.993
H 12.092 24.514 31.182
H 10.865 24.828 29.93 
