137

Mg 28.089 32.261 37.142
C 25.422 31.37  39.077
C 25.775 33.607 34.838
H 25.119 33.794 33.956
C 30.609 33.543 35.39 
H 31.423 33.812 34.766
C 30.242 30.723 39.322
H 30.86  30.25  40.067
N 25.826 32.608 37.05 
C 24.944 32.104 38.002
C 23.522 32.35  37.631
H 22.927 31.44  37.61 
C 23.657 33.013 36.172
H 23.274 34.013 36.19 
C 25.227 33.106 35.996
C 22.927 32.116 35.089
H 23.082 31.02  35.233
H 21.922 32.367 35.219
H 23.215 32.363 34.081
C 22.868 33.192 38.739
H 23.469 34.119 38.983
H 22.927 32.621 39.652
C 21.398 33.709 38.477
H 21.003 33.251 37.575
H 20.817 33.485 39.38 
C 21.184 35.195 38.328
O 21.446 36.009 39.177
O 20.685 35.554 37.052
N 28.251 33.4   35.366
C 27.207 33.808 34.559
C 27.718 34.584 33.483
C 29.123 34.505 33.574
C 29.401 33.751 34.8  
C 26.858 35.141 32.378
H 25.957 35.538 32.837
H 27.202 36.009 31.873
H 26.551 34.346 31.698
C 30.139 35.12  32.63 
H 30.096 36.118 32.305
C 31.26  34.512 32.213
H 31.318 33.454 32.358
H 31.834 34.961 31.346
N 30.106 32.274 37.343
C 30.98  32.866 36.521
C 32.36  32.593 36.946
C 32.245 31.789 38.105
C 30.808 31.551 38.329
C 33.67  33.258 36.391
H 34.368 33.564 37.281
H 34.29  32.498 35.908
H 33.327 34.075 35.733
C 33.358 31.194 38.95 
H 33.237 30.111 38.96 
H 34.331 31.389 38.384
C 33.334 31.746 40.399
H 33.344 32.917 40.483
H 32.402 31.422 40.836
H 34.138 31.225 40.835
N 27.938 31.304 38.853
C 28.86  30.69  39.592
C 28.233 29.879 40.649
C 26.905 30.112 40.467
C 26.777 31.05  39.396
C 28.781 28.992 41.683
H 28.395 27.957 41.555
H 29.823 28.855 41.597
H 28.626 29.313 42.644
C 25.622 29.769 41.02 
O 25.313 29.099 42.025
C 24.597 30.534 40.104
H 24.038 31.119 40.839
C 23.885 29.375 39.524
O 24.16  28.764 38.565
O 22.806 29.038 40.302
C 21.99  27.9   39.905
H 21.059 27.844 40.507
H 21.703 27.942 38.832
H 22.609 26.993 40.036
C 20.569 36.98  36.936
H 21.605 37.336 36.656
H 20.221 37.463 37.85 
C 19.463 37.26  35.948
H 18.542 36.818 36.289
C 19.576 37.897 34.744
C 20.822 38.469 34.197
H 21.555 38.685 35.011
H 21.229 37.815 33.428
H 20.585 39.459 33.785
C 18.36  38.046 33.909
H 17.515 37.461 34.329
H 18.547 37.683 32.895
C 17.864 39.515 33.786
H 18.168 40.017 32.894
H 18.252 40.199 34.545
C 16.303 39.73  33.753
H 16.014 40.315 34.666
H 15.886 38.752 33.963
C 15.798 40.474 32.508
H 16.311 41.401 32.469
C 14.317 40.782 32.826
H 14.392 41.588 33.625
H 13.776 40.967 31.881
H 13.833 39.968 33.383
C 15.964 39.765 31.15 
H 16.985 39.673 30.943
H 15.595 40.418 30.408
C 15.23  38.388 30.934
H 14.748 38.484 29.972
H 14.398 38.327 31.577
C 16.124 37.155 31.145
H 15.938 36.949 32.235
H 17.227 37.419 31.101
C 15.848 35.872 30.365
H 14.794 35.83  30.162
C 16.229 34.604 31.105
H 16.118 33.627 30.581
H 17.195 34.64  31.377
H 15.775 34.656 32.059
C 16.44  35.994 28.943
H 17.568 35.949 28.931
H 16.079 36.992 28.494
C 15.844 34.913 27.946
H 15.001 35.359 27.421
H 15.462 34.067 28.485
C 17.    34.5   26.903
H 17.988 34.802 27.31 
H 16.793 34.878 25.923
C 17.095 32.984 26.703
H 17.453 32.56  27.653
C 18.305 32.755 25.65 
H 18.43  31.721 25.328
H 18.18  33.404 24.873
H 19.214 33.127 26.15 
C 15.858 32.292 26.092
H 15.624 32.429 25.003
H 15.897 31.24  26.315
H 14.967 32.534 26.66 
