137

Mg 21.72  19.768 32.743
C 24.84  19.465 31.307
C 22.526 22.981 33.518
H 22.72  24.002 33.941
C 18.404 20.244 33.528
H 17.365 20.447 33.851
C 21.004 16.516 31.804
H 20.878 15.482 31.5  
N 23.528 21.04  32.494
C 24.699 20.69  31.869
C 25.701 21.831 31.927
H 26.715 21.555 32.146
C 25.032 22.906 32.906
H 24.943 23.865 32.428
C 23.601 22.278 32.97 
C 25.601 22.935 34.44 
H 26.606 23.447 34.564
H 24.818 23.4   35.017
H 25.665 21.929 34.745
C 25.834 22.474 30.479
H 24.861 22.891 30.232
H 25.91  21.643 29.766
C 26.882 23.547 30.354
H 27.493 23.762 31.232
H 27.475 23.037 29.596
C 26.458 24.85  29.757
O 27.079 25.419 28.868
O 25.295 25.282 30.247
N 20.673 21.369 33.42 
C 21.18  22.636 33.709
C 20.077 23.46  34.143
C 18.888 22.656 34.171
C 19.298 21.352 33.737
C 20.256 24.914 34.352
H 20.504 25.011 35.409
H 21.04 25.26 33.67
H 19.311 25.515 34.147
C 17.444 22.999 34.589
H 16.645 22.429 34.14 
C 17.018 23.996 35.419
H 17.726 24.66  35.95 
H 15.931 24.19  35.533
N 20.023 18.609 32.628
C 18.782 18.983 33.046
C 17.877 17.792 33.071
C 18.64  16.678 32.535
C 19.955 17.235 32.297
C 16.481 17.758 33.502
H 16.027 18.763 33.651
H 15.931 17.165 32.765
H 16.323 17.252 34.383
C 18.165 15.285 32.246
H 18.989 14.592 32.5  
H 17.393 15.02  32.975
C 17.632 14.999 30.895
H 17.092 14.038 30.986
H 16.898 15.695 30.516
H 18.384 14.973 30.157
N 22.738 18.209 31.763
C 22.316 16.923 31.528
C 23.449 16.198 30.904
C 24.454 17.179 30.826
C 23.986 18.383 31.351
C 23.508 14.77  30.355
H 24.166 14.189 30.929
H 22.506 14.248 30.295
H 23.928 14.908 29.351
C 25.83  17.421 30.44 
O 26.727 16.699 30.119
C 26.133 18.928 30.789
H 26.413 19.458 29.884
C 27.323 18.974 31.649
O 27.304 18.79  32.894
O 28.43  19.548 31.041
C 29.636 19.631 31.88 
H 29.962 18.675 32.211
H 30.472 19.927 31.235
H 29.565 20.288 32.763
C 24.818 26.525 29.679
H 24.708 26.29  28.694
H 25.63  27.288 29.961
C 23.447 26.696 30.286
H 23.364 26.884 31.378
C 22.232 26.619 29.698
C 21.888 26.337 28.238
H 20.951 26.774 27.873
H 22.773 26.619 27.616
H 21.816 25.209 28.113
C 20.985 26.468 30.57 
H 21.2   25.973 31.495
H 20.264 25.895 29.998
C 20.528 27.854 31.049
H 21.443 28.483 31.172
H 20.049 27.747 31.974
C 19.555 28.559 30.006
H 19.445 28.01  29.083
H 20.082 29.478 29.704
C 18.192 28.889 30.715
H 18.36  29.555 31.575
C 17.473 27.619 31.231
H 17.548 26.88  30.514
H 17.887 27.322 32.224
H 16.377 27.858 31.352
C 17.115 29.8   29.926
H 16.258 29.961 30.491
H 16.75  29.209 29.081
C 17.622 31.114 29.299
H 17.528 31.058 28.221
H 18.68  31.147 29.422
C 17.03  32.384 29.873
H 16.03  32.183 30.387
H 16.574 32.743 28.984
C 17.911 33.433 30.65 
H 18.921 33.384 30.208
C 18.043 33.009 32.125
H 18.712 33.665 32.722
H 17.095 33.027 32.633
H 18.539 31.993 32.15 
C 17.342 34.845 30.504
H 16.416 34.779 30.974
H 17.174 34.955 29.45 
C 18.29  36.104 30.721
H 18.597 36.441 29.703
H 19.21  35.85  31.363
C 17.501 37.209 31.511
H 18.022 37.539 32.388
H 16.518 36.849 31.8  
C 17.098 38.442 30.7  
H 17.896 38.795 30.067
C 16.564 39.641 31.491
H 16.352 40.402 30.754
H 15.658 39.299 32.083
H 17.449 40.06  32.098
C 16.054 37.942 29.627
H 15.038 37.932 30.051
H 16.108 38.791 28.902
H 16.266 36.978 29.11 
