137

Mg 27.232 32.839 38.964
C 25.134 30.475 40.269
C 24.46  34.675 38.019
H 23.652 35.225 37.563
C 29.244 35.275 37.95 
H 29.876 36.065 37.603
C 29.938 30.882 39.776
H 30.814 30.226 39.827
N 25.12  32.548 39.194
C 24.426 31.433 39.628
C 22.911 31.533 39.427
H 22.718 30.694 38.787
C 22.782 32.861 38.616
H 22.072 33.53  39.128
C 24.217 33.438 38.569
C 22.047 32.538 37.271
H 22.01  33.357 36.578
H 22.342 31.691 36.68 
H 21.051 32.402 37.568
C 22.036 31.575 40.766
H 21.995 32.658 41.025
H 22.454 30.972 41.523
C 20.504 31.275 40.622
H 20.332 30.634 39.775
H 20.115 30.581 41.462
C 19.479 32.333 40.679
O 18.673 32.442 41.598
O 19.722 33.217 39.627
N 26.892 34.707 38.258
C 25.68  35.287 37.976
C 25.926 36.64  37.515
C 27.282 36.888 37.47 
C 27.885 35.596 37.911
C 24.835 37.531 37.104
H 24.199 37.015 36.425
H 24.149 37.803 37.936
H 25.175 38.408 36.51 
C 28.019 38.038 37.05 
H 27.754 39.056 37.53 
C 29.083 37.982 36.214
H 29.281 36.974 35.756
H 29.695 38.9   35.917
N 29.248 33.025 38.846
C 29.857 34.082 38.314
C 31.275 33.836 38.234
C 31.496 32.585 38.718
C 30.157 32.095 39.085
C 32.342 34.799 37.732
H 32.399 35.639 38.452
H 33.288 34.395 37.498
H 31.947 35.186 36.832
C 32.853 31.801 38.79 
H 32.673 30.836 38.38 
H 33.637 32.28  38.178
C 33.37  31.676 40.178
H 33.184 32.645 40.729
H 32.927 30.868 40.707
H 34.398 31.558 40.087
N 27.529 31.097 39.844
C 28.647 30.376 40.114
C 28.307 29.175 40.786
C 26.945 29.181 40.949
C 26.51  30.364 40.285
C 29.226 28.083 41.194
H 29.95  28.546 41.854
H 28.64  27.26  41.629
H 29.78  27.683 40.356
C 25.878 28.482 41.555
O 25.806 27.543 42.372
C 24.606 29.217 41.03 
H 23.939 29.359 41.859
C 23.954 28.203 40.156
O 24.341 27.98  39.016
O 22.929 27.591 40.857
C 22.21  26.503 40.234
H 22.092 26.773 39.198
H 22.771 25.581 40.309
H 21.196 26.28  40.638
C 19.011 34.496 39.744
H 19.182 34.968 40.689
H 17.911 34.377 39.681
C 19.422 35.333 38.594
H 19.519 34.848 37.588
C 19.981 36.529 38.699
C 20.5   37.203 39.933
H 21.573 37.628 39.786
H 19.847 38.101 40.102
H 20.621 36.548 40.771
C 20.457 37.227 37.407
H 20.505 36.487 36.558
H 21.552 37.392 37.44 
C 19.945 38.636 36.896
H 19.656 38.734 35.902
H 20.633 39.469 37.059
C 18.64  38.946 37.632
H 19.003 39.635 38.352
H 18.342 37.998 38.107
C 17.473 39.486 36.78 
H 17.779 40.457 36.333
C 16.306 39.788 37.636
H 16.623 40.44  38.411
H 15.504 40.239 37.123
H 15.885 38.873 38.069
C 16.983 38.774 35.397
H 17.742 38.938 34.601
H 16.103 39.252 34.943
C 16.702 37.254 35.447
H 15.823 36.934 34.892
H 16.516 36.908 36.473
C 17.974 36.453 34.859
H 18.475 36.161 35.782
H 18.623 37.04  34.159
C 17.652 35.078 34.159
H 16.829 34.512 34.723
C 18.998 34.247 34.178
H 18.959 33.381 33.545
H 19.77  34.918 33.729
H 19.187 34.098 35.261
C 17.1   35.404 32.628
H 17.852 35.877 32.065
H 16.32  36.087 33.001
C 16.46  34.214 31.909
H 15.492 34.51  31.513
H 16.357 33.437 32.733
C 17.257 33.554 30.766
H 17.833 32.718 31.21 
H 18.155 34.153 30.409
C 16.425 32.74  29.708
H 15.517 32.491 30.247
C 17.035 31.34  29.249
H 16.294 30.83  28.638
H 17.953 31.497 28.608
H 17.246 30.74  30.119
C 15.87  33.621 28.644
H 16.661 34.299 28.259
H 15.631 32.897 27.902
H 15.031 34.258 28.981
