137

Mg 27.022 30.566 36.948
C 26.553 28.413 39.561
C 26.962 27.824 34.824
H 26.716 26.976 34.144
C 27.815 32.501 34.274
H 27.838 33.159 33.461
C 27.527 33.23  39.097
H 27.773 34.06  39.656
N 26.535 28.447 37.15 
C 26.389 27.785 38.327
C 25.891 26.331 38.116
H 26.534 25.671 38.719
C 26.28  26.152 36.552
H 25.357 25.789 36.012
C 26.683 27.573 36.15 
C 27.401 25.116 36.353
H 28.344 25.601 36.789
H 27.067 24.127 36.808
H 27.453 24.911 35.299
C 24.438 26.209 38.548
H 23.956 27.075 38.11 
H 24.37  26.424 39.583
C 23.747 24.873 38.225
H 24.489 24.156 38.037
H 23.194 24.583 39.082
C 22.683 24.881 37.168
O 22.4   25.82  36.449
O 22.236 23.595 36.98 
N 27.39  30.196 34.874
C 27.303 29.008 34.206
C 27.592 29.205 32.759
C 27.896 30.577 32.694
C 27.685 31.144 33.947
C 27.48  28.093 31.677
H 27.683 28.412 30.653
H 28.213 27.356 31.923
H 26.514 27.675 31.635
C 28.448 31.367 31.553
H 29.189 32.155 31.737
C 28.08  31.221 30.264
H 27.305 30.507 29.907
H 28.449 31.934 29.548
N 27.603 32.464 36.728
C 27.808 33.09  35.535
C 28.254 34.501 35.75 
C 27.972 34.71  37.133
C 27.615 33.443 37.725
C 28.8   35.507 34.73 
H 29.583 36.158 35.114
H 29.509 34.909 34.141
H 28.003 36.023 34.24 
C 28.251 35.964 37.848
H 28.931 35.873 38.759
H 28.781 36.581 37.085
C 27.029 36.732 38.286
H 27.416 37.614 38.869
H 26.514 37.08  37.379
H 26.401 36.111 38.872
N 26.999 30.795 38.905
C 27.215 31.956 39.67 
C 27.353 31.58  41.107
C 27.087 30.181 41.091
C 26.936 29.743 39.74 
C 27.668 32.494 42.283
H 26.776 33.028 42.548
H 28.143 31.918 43.151
H 28.382 33.3   41.977
C 26.915 28.981 41.906
O 26.978 28.897 43.142
C 26.572 27.759 40.952
H 25.623 27.453 41.33 
C 27.545 26.688 41.256
O 28.694 26.706 40.827
O 27.046 25.721 42.151
C 28.025 24.672 42.433
H 28.921 25.173 42.794
H 27.627 24.011 43.102
H 28.277 24.094 41.54 
C 21.561 23.402 35.721
H 22.178 23.721 34.874
H 20.611 23.92  35.699
C 21.272 21.943 35.468
H 20.848 21.504 36.403
C 21.349 21.148 34.348
C 21.731 21.655 32.971
H 22.572 21.239 32.495
H 20.88  21.485 32.28 
H 21.852 22.744 33.101
C 21.094 19.632 34.365
H 20.992 19.197 35.382
H 22.084 19.259 34.019
C 20.043 19.032 33.443
H 19.477 19.926 33.136
H 19.378 18.306 33.989
C 20.6   18.397 32.118
H 21.587 18.831 31.902
H 19.845 18.742 31.412
C 20.843 16.929 32.153
H 21.439 16.764 33.043
C 21.578 16.401 30.881
H 20.949 16.663 30.023
H 22.527 16.786 30.733
H 21.588 15.319 30.857
C 19.588 16.068 32.378
H 19.071 16.255 33.33 
H 20.055 15.058 32.444
C 18.413 16.154 31.236
H 18.541 16.967 30.541
H 17.514 16.536 31.756
C 18.237 14.883 30.414
H 18.902 14.149 30.93 
H 18.773 15.068 29.48 
C 16.904 14.264 30.071
H 16.401 14.944 29.439
C 16.062 13.939 31.309
H 15.165 13.353 31.101
H 16.708 13.368 32.023
H 15.826 14.91  31.758
C 17.124 12.852 29.327
H 16.204 12.273 29.192
H 17.742 12.228 29.965
C 17.677 13.01  27.847
H 17.719 14.033 27.56 
H 16.925 12.566 27.221
C 19.072 12.359 27.67 
H 19.55  11.79  28.511
H 19.678 13.236 27.317
C 19.18  11.412 26.455
H 18.87  11.975 25.56 
C 18.275 10.207 26.478
H 18.495  9.609 27.369
H 17.261 10.463 26.563
H 18.338  9.579 25.578
C 20.724 10.991 26.456
H 21.374 11.856 26.251
H 20.954 10.538 27.45 
H 20.906 10.208 25.689
