137

Mg 25.719 32.418 33.913
C 24.275 32.085 36.97 
C 22.648 33.279 32.574
H 21.614 33.342 32.121
C 27.136 33.497 30.983
H 27.483 33.999 30.057
C 28.831 31.924 35.292
H 29.766 31.682 35.816
N 23.668 32.676 34.637
C 23.307 32.503 36.021
C 21.812 32.752 36.153
H 21.503 31.764 36.519
C 21.226 32.846 34.742
H 20.577 33.673 34.517
C 22.582 32.932 33.918
C 20.267 31.63  34.428
H 20.833 30.739 34.58 
H 19.37  31.704 35.076
H 19.974 31.507 33.368
C 21.456 33.895 37.118
H 21.389 34.81  36.539
H 22.29  34.115 37.738
C 20.208 33.662 37.958
H 19.704 32.74  37.659
H 20.393 33.556 39.046
C 19.165 34.705 38.11 
O 18.746 35.207 39.132
O 18.775 35.105 36.88 
N 25.048 33.216 32.037
C 23.74  33.434 31.718
C 23.623 33.886 30.384
C 24.922 33.95  29.87 
C 25.821 33.615 30.968
C 22.371 34.301 29.598
H 22.557 34.85  28.631
H 21.739 33.395 29.494
H 21.975 35.013 30.251
C 25.45  34.394 28.563
H 26.426 34.9   28.439
C 24.913 33.953 27.379
H 24.141 33.14  27.328
H 25.316 34.27  26.388
N 27.595 32.516 33.232
C 27.941 32.997 32.   
C 29.404 32.871 31.814
C 29.91  32.495 33.083
C 28.794 32.346 33.945
C 30.045 33.148 30.561
H 29.389 32.833 29.789
H 30.2   34.229 30.535
H 30.947 32.597 30.524
C 31.323 32.504 33.496
H 31.446 31.952 34.445
H 32.027 32.087 32.708
C 31.827 33.926 33.792
H 32.905 33.903 34.002
H 31.701 34.614 32.921
H 31.317 34.254 34.69 
N 26.478 32.157 35.71 
C 27.723 31.846 36.143
C 27.679 31.344 37.497
C 26.328 31.49  37.915
C 25.624 31.987 36.768
C 28.794 30.817 38.263
H 28.467 30.444 39.256
H 29.287 30.008 37.727
H 29.542 31.618 38.466
C 25.369 31.218 38.923
O 25.471 30.648 39.99 
C 24.078 31.873 38.434
H 23.983 32.832 38.938
C 23.022 30.839 38.739
O 22.76  29.853 38.046
O 22.194 31.249 39.695
C 20.931 30.541 39.74 
H 20.171 30.843 39.062
H 20.924 29.467 39.959
H 20.489 30.929 40.638
C 17.64  36.051 36.792
H 17.853 37.047 37.206
H 16.706 35.732 37.327
C 17.181 36.108 35.336
H 17.591 35.516 34.588
C 16.354 37.003 34.745
C 15.369 37.914 35.446
H 15.463 38.92  35.025
H 14.269 37.733 35.354
H 15.63  37.848 36.462
C 16.012 36.811 33.287
H 16.88  36.477 32.682
H 15.89  37.809 32.864
C 14.863 35.83  33.11 
H 14.871 35.298 34.096
H 15.007 35.121 32.281
C 13.553 36.644 32.919
H 13.782 37.708 32.851
H 12.909 36.499 33.757
C 12.693 36.257 31.725
H 13.386 36.537 30.893
C 11.427 37.14  31.639
H 10.876 36.867 30.718
H 10.676 36.926 32.433
H 11.638 38.17  31.508
C 12.438 34.674 31.582
H 13.376 34.183 31.532
H 12.005 34.572 30.559
C 11.613 34.042 32.72 
H 10.773 33.625 32.219
H 11.263 34.883 33.349
C 12.287 32.954 33.59 
H 12.304 33.257 34.701
H 13.38  32.838 33.25 
C 11.692 31.515 33.453
H 10.657 31.478 33.768
C 12.267 30.673 34.566
H 11.954 29.641 34.513
H 13.359 30.656 34.437
H 12.073 31.031 35.612
C 11.824 30.903 31.995
H 12.804 30.525 31.847
H 11.632 31.718 31.291
C 10.886 29.685 31.81 
H 10.4   29.265 32.711
H 11.602 28.968 31.442
C  9.872 29.978 30.69 
H 10.147 29.444 29.753
H  9.867 31.071 30.459
C  8.416 29.699 31.026
H  8.176 28.685 31.304
C  7.569 29.963 29.752
H  6.608 29.509 30.014
H  7.465 31.007 29.629
H  7.859 29.38  28.833
C  7.729 30.513 32.194
H  6.652 30.299 32.262
H  8.313 30.144 33.062
H  7.938 31.553 32.014
