137

Mg 21.185 32.182 31.851
C 20.375 28.834 31.886
C 18.276 32.761 33.672
H 17.391 33.    34.252
C 22.207 35.385 32.541
H 22.489 36.291 32.884
C 24.287 31.468 30.561
H 25.248 31.265 30.084
N 19.449 31.062 32.469
C 19.389 29.665 32.458
C 18.029 29.128 32.928
H 17.537 28.646 32.057
C 17.242 30.503 33.195
H 16.849 30.71  34.162
C 18.408 31.478 33.219
C 16.099 30.797 32.17 
H 16.479 30.75  31.1  
H 15.431 29.989 32.371
H 15.582 31.761 32.31 
C 18.088 28.249 34.228
H 18.12  28.917 35.061
H 19.021 27.588 34.222
C 16.864 27.321 34.436
H 16.184 27.208 33.557
H 17.346 26.336 34.608
C 15.976 27.614 35.651
O 15.911 26.961 36.712
O 15.327 28.803 35.438
N 20.316 33.802 32.755
C 19.104 33.861 33.43 
C 18.925 35.178 34.078
C 20.062 35.946 33.709
C 20.933 35.032 32.97 
C 17.774 35.668 34.885
H 18.037 36.529 35.508
H 16.891 35.794 34.22 
H 17.337 34.931 35.634
C 20.372 37.386 33.883
H 21.429 37.66  33.824
C 19.453 38.421 34.023
H 18.344 38.226 34.034
H 19.82  39.437 34.21 
N 22.872 33.28  31.519
C 23.163 34.584 31.934
C 24.474 35.016 31.432
C 25.045 33.826 30.933
C 24.084 32.811 31.013
C 24.966 36.444 31.519
H 24.301 36.981 32.234
H 25.994 36.531 31.87 
H 24.894 36.87  30.526
C 26.405 33.704 30.396
H 26.367 33.263 29.368
H 26.835 34.671 30.252
C 27.269 32.775 31.252
H 28.298 32.813 30.911
H 27.099 32.998 32.364
H 27.071 31.708 31.083
N 22.122 30.538 31.237
C 23.469 30.341 30.7  
C 23.627 28.981 30.393
C 22.47  28.373 30.838
C 21.557 29.339 31.315
C 24.821 28.202 29.859
H 25.59  27.934 30.622
H 24.316 27.193 29.561
H 25.418 28.571 28.971
C 21.842 27.095 31.095
O 22.29  26.006 30.855
C 20.431 27.323 31.678
H 20.381 26.773 32.573
C 19.483 26.753 30.689
O 19.183 27.246 29.595
O 18.899 25.677 31.163
C 18.06  24.869 30.341
H 17.344 25.396 29.776
H 18.685 24.424 29.493
H 17.595 24.097 30.969
C 14.398 29.248 36.525
H 15.035 29.344 37.388
H 13.618 28.43  36.72 
C 13.857 30.541 36.063
H 13.363 30.452 35.077
C 13.87  31.719 36.613
C 14.529 31.995 37.965
H 14.953 31.168 38.464
H 15.241 32.811 37.83 
H 13.796 32.43  38.679
C 13.127 32.894 36.013
H 13.038 32.733 34.912
H 13.828 33.652 35.957
C 11.862 33.573 36.557
H 12.021 34.604 36.788
H 11.64  33.086 37.479
C 10.652 33.228 35.691
H 10.396 32.125 35.834
H 10.886 33.291 34.621
C  9.39  34.108 36.02 
H  9.262 34.057 37.115
C  8.138 33.364 35.373
H  7.315 33.885 35.815
H  8.267 33.466 34.32 
H  8.113 32.27  35.653
C  9.578 35.551 35.515
H 10.335 35.975 36.185
H  8.668 36.064 35.752
C  9.884 35.721 33.961
H  9.181 36.461 33.564
H  9.753 34.806 33.309
C 11.322 36.28  33.74 
H 12.148 35.752 34.331
H 11.255 37.261 34.068
C 11.707 36.512 32.214
H 10.913 37.081 31.736
C 11.814 35.221 31.405
H 12.587 34.531 31.881
H 10.866 34.666 31.411
H 12.209 35.544 30.398
C 13.039 37.288 32.236
H 13.519 37.193 31.294
H 13.831 37.034 32.978
C 12.843 38.755 32.488
H 11.809 39.016 32.51 
H 13.396 39.268 31.737
C 13.28  39.197 33.841
H 13.359 38.336 34.546
H 12.484 39.814 34.271
C 14.42  40.223 34.094
H 14.359 40.921 33.266
C 15.845 39.507 34.08 
H 16.011 38.803 33.309
H 16.547 40.334 33.931
H 15.972 39.036 35.092
C 14.262 40.998 35.406
H 15.249 41.568 35.496
H 13.446 41.652 35.326
H 14.264 40.306 36.285
