137

Mg 29.148 27.039 32.071
C 27.219 24.768 30.403
C 30.815 27.704 29.207
H 31.294 27.882 28.28 
C 31.011 29.305 33.661
H 31.617 30.078 34.17 
C 27.888 25.738 35.054
H 27.471 25.279 35.951
N 29.074 26.357 30.053
C 28.096 25.472 29.597
C 28.194 25.33  28.153
H 28.404 24.312 28.083
C 29.464 26.071 27.817
H 29.218 26.818 27.042
C 29.842 26.712 29.081
C 30.58  25.116 27.3  
H 30.508 24.222 27.857
H 30.489 25.037 26.177
H 31.575 25.608 27.551
C 26.901 25.635 27.37 
H 26.851 26.693 27.164
H 26.123 25.265 28.003
C 26.827 24.953 25.962
H 27.092 25.709 25.211
H 27.485 24.111 25.971
C 25.48  24.455 25.581
O 24.778 24.847 24.631
O 25.136 23.529 26.519
N 30.569 28.383 31.493
C 31.154 28.505 30.331
C 32.069 29.559 30.226
C 32.15  30.084 31.522
C 31.168 29.238 32.304
C 32.926 29.863 29.   
H 33.955 30.26  29.334
H 33.134 29.107 28.171
H 32.47  30.731 28.521
C 32.974 31.217 32.014
H 33.061 31.288 33.153
C 33.658 32.145 31.311
H 33.687 32.145 30.248
H 34.384 32.851 31.738
N 29.335 27.524 34.037
C 30.118 28.529 34.523
C 29.993 28.561 36.038
C 29.19  27.441 36.399
C 28.755 26.791 35.156
C 30.788 29.45  36.959
H 30.044 29.99  37.524
H 31.456 28.872 37.628
H 31.36  30.183 36.432
C 28.686 27.023 37.803
H 28.779 25.953 37.911
H 29.273 27.584 38.543
C 27.195 27.342 38.065
H 26.645 26.869 37.293
H 27.074 26.936 39.071
H 27.073 28.404 38.079
N 27.742 25.708 32.676
C 27.291 25.295 33.9  
C 26.201 24.406 33.775
C 26.162 24.11  32.42 
C 27.069 24.994 31.798
C 25.314 23.909 34.808
H 25.037 24.744 35.39 
H 24.444 23.392 34.457
H 25.917 23.268 35.469
C 25.521 23.3   31.394
O 24.693 22.431 31.49 
C 26.21  23.617 30.11 
H 25.341 23.823 29.422
C 26.813 22.383 29.659
O 28.031 22.163 29.658
O 25.932 21.543 28.994
C 26.49  20.258 28.562
H 25.619 19.622 28.24 
H 27.167 20.399 27.726
H 27.133 19.715 29.356
C 23.769 23.079 26.508
H 23.766 22.208 25.936
H 23.178 23.836 25.956
C 23.25  22.926 27.898
H 23.033 23.871 28.426
C 22.748 21.797 28.421
C 22.741 20.43  27.809
H 23.333 20.315 26.946
H 23.123 19.609 28.414
H 21.718 20.161 27.524
C 21.999 21.854 29.719
H 22.002 22.921 30.038
H 22.588 21.194 30.323
C 20.545 21.462 29.781
H 20.551 20.881 30.69 
H 20.129 20.777 29.039
C 19.597 22.744 29.97 
H 20.035 23.757 30.11 
H 19.103 22.552 30.927
C 18.486 22.863 28.868
H 18.975 22.612 27.95 
C 17.963 24.291 28.722
H 17.194 24.659 29.486
H 18.84  24.972 28.617
H 17.425 24.297 27.804
C 17.347 21.809 28.876
H 17.787 20.841 28.913
H 16.85  21.849 27.865
C 16.261 21.944 29.926
H 15.394 22.482 29.432
H 16.669 22.554 30.725
C 15.812 20.621 30.584
H 16.664 19.93  30.591
H 15.016 20.116 30.016
C 15.399 20.793 32.086
H 16.074 21.438 32.638
C 15.317 19.501 32.827
H 15.106 19.594 33.906
H 14.438 18.96  32.413
H 16.267 18.881 32.878
C 14.07  21.492 32.146
H 13.289 20.799 31.695
H 13.988 22.398 31.536
C 13.654 22.068 33.57 
H 13.391 23.092 33.579
H 14.542 22.021 34.251
C 12.368 21.327 34.15 
H 12.411 21.082 35.192
H 12.211 20.448 33.586
C 11.078 22.207 34.013
H 11.292 23.209 34.509
C  9.956 21.441 34.841
H  9.705 20.418 34.483
H 10.262 21.281 35.873
H  9.004 22.085 34.822
C 10.73  22.596 32.567
H 10.605 21.701 32.014
H  9.917 23.308 32.509
H 11.54  23.116 32.127
