137

Mg 21.39  17.791 27.521
C 21.647 17.649 24.031
C 24.453 19.356 27.564
H 25.45  19.727 27.615
C 21.42  17.469 30.748
H 21.532 17.235 31.81 
C 18.355 16.083 27.24 
H 17.369 15.613 27.235
N 22.9   18.405 25.974
C 22.746 18.32  24.632
C 23.884 18.96  23.848
H 24.185 18.186 23.166
C 24.924 19.134 25.077
H 25.208 20.204 25.227
C 24.041 18.949 26.3  
C 26.203 18.181 24.924
H 25.929 17.16  24.863
H 26.722 18.307 24.012
H 26.8   18.233 25.782
C 23.358 20.328 23.23 
H 22.833 20.795 24.058
H 22.592 20.11  22.47 
C 24.452 21.206 22.659
H 25.385 20.679 22.519
H 24.061 21.538 21.718
C 24.837 22.387 23.517
O 25.904 22.965 23.442
O 23.831 22.9   24.326
N 22.667 18.352 28.917
C 23.953 18.873 28.75 
C 24.578 18.975 30.012
C 23.741 18.342 30.919
C 22.55  18.075 30.207
C 25.913 19.54  30.383
H 26.207 20.386 29.767
H 25.838 19.871 31.408
H 26.663 18.729 30.263
C 23.986 17.997 32.367
H 23.141 18.262 33.083
C 25.149 17.437 32.85 
H 25.989 17.121 32.201
H 25.321 17.176 33.898
N 20.046 17.064 28.868
C 20.226 17.051 30.214
C 19.139 16.49  30.865
C 18.36  15.976 29.839
C 18.925 16.357 28.575
C 19.003 16.171 32.375
H 19.362 16.989 32.916
H 17.989 15.937 32.615
H 19.628 15.298 32.575
C 17.111 15.205 29.936
H 17.206 14.299 29.371
H 16.9   14.868 30.97 
C 15.847 15.988 29.549
H 15.932 16.906 30.095
H 15.866 16.287 28.531
H 14.933 15.491 29.85 
N 20.249 16.977 25.934
C 19.006 16.337 26.021
C 18.528 15.979 24.679
C 19.559 16.387 23.858
C 20.561 17.05  24.661
C 17.153 15.451 24.343
H 16.454 15.922 25.054
H 16.855 15.618 23.296
H 16.986 14.392 24.736
C 20.02  16.424 22.518
O 19.564 15.914 21.532
C 21.386 17.291 22.524
H 21.287 18.169 21.927
C 22.42  16.272 22.   
O 22.777 15.255 22.617
O 23.055 16.822 20.927
C 24.119 16.01  20.375
H 23.849 14.978 20.227
H 24.432 16.409 19.387
H 24.977 16.057 20.982
C 24.059 24.146 24.921
H 24.353 24.88  24.139
H 24.822 24.173 25.625
C 22.849 24.6   25.664
H 22.774 24.075 26.616
C 21.893 25.467 25.334
C 21.791 26.194 23.976
H 21.857 27.271 24.223
H 22.427 25.842 23.177
H 20.779 26.05  23.654
C 20.734 25.837 26.215
H 20.6   25.052 26.97 
H 19.859 25.857 25.663
C 20.803 27.151 26.987
H 19.862 27.618 27.145
H 21.298 27.914 26.361
C 21.593 27.125 28.286
H 22.357 26.347 28.253
H 20.842 26.811 29.004
C 22.363 28.41  28.661
H 21.902 29.236 28.031
C 23.834 28.318 28.181
H 24.418 27.593 28.748
H 23.831 27.959 27.132
H 24.335 29.267 28.185
C 22.355 28.788 30.128
H 22.8   29.746 30.127
H 23.05  28.042 30.615
C 20.999 28.835 30.907
H 20.381 27.941 30.677
H 20.469 29.748 30.628
C 21.088 28.949 32.466
H 21.52  29.986 32.587
H 21.842 28.208 32.862
C 19.79  28.705 33.259
H 19.416 27.652 33.204
C 18.521 29.641 32.894
H 17.643 29.279 33.367
H 18.771 30.716 33.152
H 18.261 29.421 31.859
C 19.986 28.693 34.816
H 20.29  29.779 34.991
H 20.901 28.101 35.093
C 18.766 28.299 35.645
H 18.942 27.388 36.186
H 18.045 27.886 34.994
C 18.164 29.48  36.54 
H 17.228 29.79  36.045
H 18.756 30.361 36.588
C 17.851 29.132 37.988
H 17.226 28.199 37.978
C 17.007 30.256 38.771
H 16.337 30.744 38.12 
H 16.373 29.811 39.532
H 17.775 30.999 39.166
C 19.146 28.824 38.805
H 18.872 28.447 39.758
H 19.662 28.013 38.318
H 19.735 29.716 39.024
