137

Mg 21.288 28.927 29.853
C 22.165 25.86  31.186
C 18.082 28.559 31.126
H 17.086 28.555 31.559
C 20.38  31.781 28.227
H 20.04  32.635 27.629
C 24.348 28.93  28.129
H 25.295 29.069 27.656
N 20.278 27.399 31.101
C 20.9   26.277 31.633
C 19.98  25.508 32.565
H 19.916 24.444 32.203
C 18.558 26.248 32.251
H 18.083 26.436 33.224
C 18.949 27.496 31.455
C 17.648 25.36  31.398
H 18.304 24.87  30.599
H 17.302 24.569 32.021
H 16.824 25.961 31.037
C 20.361 25.46  34.048
H 20.429 26.501 34.317
H 21.335 25.03  34.191
C 19.303 24.695 34.916
H 18.541 24.14  34.321
H 19.797 23.821 35.408
C 18.611 25.497 36.051
O 18.487 25.101 37.191
O 18.034 26.674 35.668
N 19.591 30.015 29.747
C 18.367 29.67  30.35 
C 17.412 30.703 30.047
C 18.033 31.647 29.168
C 19.392 31.166 29.011
C 16.176 30.778 30.834
H 16.373 30.508 31.835
H 15.779 31.761 30.682
H 15.669 30.024 30.302
C 17.433 32.913 28.64 
H 18.18  33.56  28.173
C 16.163 33.318 28.733
H 15.333 32.698 29.044
H 15.857 34.296 28.307
N 22.168 30.163 28.483
C 21.624 31.291 27.895
C 22.575 31.923 27.1  
C 23.787 31.137 27.196
C 23.457 30.028 28.003
C 22.266 33.176 26.328
H 23.206 33.561 25.997
H 21.75  32.93  25.398
H 21.843 33.955 26.957
C 25.095 31.383 26.428
H 25.517 30.509 25.941
H 24.883 32.167 25.69 
C 26.168 32.026 27.338
H 25.883 33.063 27.52 
H 26.434 31.478 28.316
H 27.07  32.245 26.782
N 22.988 27.726 29.723
C 24.132 27.842 29.   
C 24.94  26.664 29.274
C 24.176 25.879 30.108
C 22.951 26.546 30.269
C 26.342 26.403 28.789
H 26.283 26.497 27.707
H 27.042 27.14  29.181
H 26.735 25.509 29.116
C 24.234 24.693 30.862
O 25.163 23.885 31.004
C 22.969 24.647 31.668
H 23.292 24.591 32.688
C 22.323 23.421 31.347
O 22.047 22.944 30.239
O 22.007 22.769 32.505
C 21.062 21.648 32.383
H 20.052 21.923 32.417
H 21.122 20.982 31.492
H 21.3   21.014 33.232
C 17.649 27.551 36.746
H 18.48  27.96  37.343
H 16.889 27.048 37.379
C 16.852 28.535 36.037
H 15.852 28.183 35.615
C 17.129 29.865 35.779
C 18.476 30.469 36.104
H 18.996 30.027 36.928
H 18.989 30.498 35.139
H 18.254 31.547 36.327
C 16.17  30.705 35.029
H 15.337 30.085 34.778
H 16.708 31.014 34.121
C 15.584 31.862 35.872
H 16.22  32.011 36.701
H 14.713 31.5   36.307
C 15.217 33.086 35.016
H 14.137 33.133 34.881
H 15.768 33.105 34.033
C 15.484 34.564 35.669
H 16.492 34.921 35.499
C 15.363 34.623 37.24 
H 14.422 34.266 37.614
H 16.096 33.977 37.699
H 15.547 35.589 37.521
C 14.682 35.671 34.962
H 13.711 35.657 35.446
H 14.647 35.422 33.893
C 15.334 37.068 35.13 
H 15.94  36.965 36.02 
H 14.536 37.81  35.255
C 16.271 37.502 33.967
H 16.523 36.673 33.362
H 17.08  37.873 34.454
C 15.558 38.588 33.067
H 15.138 39.36  33.734
C 14.335 37.95  32.373
H 14.654 37.168 31.651
H 13.644 37.402 33.01 
H 13.794 38.739 31.768
C 16.551 39.227 32.043
H 16.02  39.869 31.345
H 16.977 38.432 31.489
C 17.692 39.958 32.789
H 18.586 39.403 32.63 
H 17.577 39.951 33.879
C 17.869 41.459 32.414
H 17.781 41.988 33.377
H 17.131 41.669 31.648
C 19.231 41.805 31.835
H 19.999 41.327 32.491
C 19.545 43.292 31.884
H 19.575 43.782 32.886
H 20.524 43.363 31.553
H 18.879 43.769 31.178
C 19.221 41.32  30.315
H 20.266 41.542 30.027
H 18.86  40.277 30.273
H 18.548 41.999 29.68 
